
---------- Begin Simulation Statistics ----------
sim_seconds                                  0.086741                       # Number of seconds simulated
sim_ticks                                 86740712000                       # Number of ticks simulated
final_tick                                86740712000                       # Number of ticks from beginning of simulation (restored from checkpoints and never reset)
sim_freq                                 1000000000000                       # Frequency of simulated ticks
host_inst_rate                                 233709                       # Simulator instruction rate (inst/s)
host_op_rate                                   256702                       # Simulator op (including micro ops) rate (op/s)
host_tick_rate                               26265443                       # Simulator tick rate (ticks/s)
host_mem_usage                                 722316                       # Number of bytes of host memory used
host_seconds                                  3302.47                       # Real time elapsed on the host
sim_insts                                   771817342                       # Number of instructions simulated
sim_ops                                     847750569                       # Number of ops (including micro ops) simulated
system.voltage_domain.voltage                       1                       # Voltage in Volts
system.clk_domain.clock                          1000                       # Clock period in ticks
system.physmem.pwrStateResidencyTicks::UNDEFINED  86740712000                       # Cumulative time (in ticks) in various power states
system.physmem.bytes_read::cpu0.inst          5162496                       # Number of bytes read from this memory
system.physmem.bytes_read::cpu0.data           552576                       # Number of bytes read from this memory
system.physmem.bytes_read::cpu1.inst          3591936                       # Number of bytes read from this memory
system.physmem.bytes_read::cpu1.data           102912                       # Number of bytes read from this memory
system.physmem.bytes_read::cpu2.inst          3680768                       # Number of bytes read from this memory
system.physmem.bytes_read::cpu2.data           105792                       # Number of bytes read from this memory
system.physmem.bytes_read::cpu3.inst          3684672                       # Number of bytes read from this memory
system.physmem.bytes_read::cpu3.data           113344                       # Number of bytes read from this memory
system.physmem.bytes_read::cpu4.inst          3569536                       # Number of bytes read from this memory
system.physmem.bytes_read::cpu4.data           102784                       # Number of bytes read from this memory
system.physmem.bytes_read::cpu5.inst          3620736                       # Number of bytes read from this memory
system.physmem.bytes_read::cpu5.data           113088                       # Number of bytes read from this memory
system.physmem.bytes_read::cpu6.inst          3616448                       # Number of bytes read from this memory
system.physmem.bytes_read::cpu6.data           110336                       # Number of bytes read from this memory
system.physmem.bytes_read::cpu7.inst          2321024                       # Number of bytes read from this memory
system.physmem.bytes_read::cpu7.data            65920                       # Number of bytes read from this memory
system.physmem.bytes_read::total             30514368                       # Number of bytes read from this memory
system.physmem.bytes_inst_read::cpu0.inst      5162496                       # Number of instructions bytes read from this memory
system.physmem.bytes_inst_read::cpu1.inst      3591936                       # Number of instructions bytes read from this memory
system.physmem.bytes_inst_read::cpu2.inst      3680768                       # Number of instructions bytes read from this memory
system.physmem.bytes_inst_read::cpu3.inst      3684672                       # Number of instructions bytes read from this memory
system.physmem.bytes_inst_read::cpu4.inst      3569536                       # Number of instructions bytes read from this memory
system.physmem.bytes_inst_read::cpu5.inst      3620736                       # Number of instructions bytes read from this memory
system.physmem.bytes_inst_read::cpu6.inst      3616448                       # Number of instructions bytes read from this memory
system.physmem.bytes_inst_read::cpu7.inst      2321024                       # Number of instructions bytes read from this memory
system.physmem.bytes_inst_read::total        29247616                       # Number of instructions bytes read from this memory
system.physmem.bytes_written::writebacks       739584                       # Number of bytes written to this memory
system.physmem.bytes_written::total            739584                       # Number of bytes written to this memory
system.physmem.num_reads::cpu0.inst             80664                       # Number of read requests responded to by this memory
system.physmem.num_reads::cpu0.data              8634                       # Number of read requests responded to by this memory
system.physmem.num_reads::cpu1.inst             56124                       # Number of read requests responded to by this memory
system.physmem.num_reads::cpu1.data              1608                       # Number of read requests responded to by this memory
system.physmem.num_reads::cpu2.inst             57512                       # Number of read requests responded to by this memory
system.physmem.num_reads::cpu2.data              1653                       # Number of read requests responded to by this memory
system.physmem.num_reads::cpu3.inst             57573                       # Number of read requests responded to by this memory
system.physmem.num_reads::cpu3.data              1771                       # Number of read requests responded to by this memory
system.physmem.num_reads::cpu4.inst             55774                       # Number of read requests responded to by this memory
system.physmem.num_reads::cpu4.data              1606                       # Number of read requests responded to by this memory
system.physmem.num_reads::cpu5.inst             56574                       # Number of read requests responded to by this memory
system.physmem.num_reads::cpu5.data              1767                       # Number of read requests responded to by this memory
system.physmem.num_reads::cpu6.inst             56507                       # Number of read requests responded to by this memory
system.physmem.num_reads::cpu6.data              1724                       # Number of read requests responded to by this memory
system.physmem.num_reads::cpu7.inst             36266                       # Number of read requests responded to by this memory
system.physmem.num_reads::cpu7.data              1030                       # Number of read requests responded to by this memory
system.physmem.num_reads::total                476787                       # Number of read requests responded to by this memory
system.physmem.num_writes::writebacks           11556                       # Number of write requests responded to by this memory
system.physmem.num_writes::total                11556                       # Number of write requests responded to by this memory
system.physmem.bw_read::cpu0.inst            59516413                       # Total read bandwidth from this memory (bytes/s)
system.physmem.bw_read::cpu0.data             6370434                       # Total read bandwidth from this memory (bytes/s)
system.physmem.bw_read::cpu1.inst            41410036                       # Total read bandwidth from this memory (bytes/s)
system.physmem.bw_read::cpu1.data             1186433                       # Total read bandwidth from this memory (bytes/s)
system.physmem.bw_read::cpu2.inst            42434146                       # Total read bandwidth from this memory (bytes/s)
system.physmem.bw_read::cpu2.data             1219635                       # Total read bandwidth from this memory (bytes/s)
system.physmem.bw_read::cpu3.inst            42479153                       # Total read bandwidth from this memory (bytes/s)
system.physmem.bw_read::cpu3.data             1306699                       # Total read bandwidth from this memory (bytes/s)
system.physmem.bw_read::cpu4.inst            41151795                       # Total read bandwidth from this memory (bytes/s)
system.physmem.bw_read::cpu4.data             1184957                       # Total read bandwidth from this memory (bytes/s)
system.physmem.bw_read::cpu5.inst            41742060                       # Total read bandwidth from this memory (bytes/s)
system.physmem.bw_read::cpu5.data             1303748                       # Total read bandwidth from this memory (bytes/s)
system.physmem.bw_read::cpu6.inst            41692625                       # Total read bandwidth from this memory (bytes/s)
system.physmem.bw_read::cpu6.data             1272021                       # Total read bandwidth from this memory (bytes/s)
system.physmem.bw_read::cpu7.inst            26758185                       # Total read bandwidth from this memory (bytes/s)
system.physmem.bw_read::cpu7.data              759966                       # Total read bandwidth from this memory (bytes/s)
system.physmem.bw_read::total               351788304                       # Total read bandwidth from this memory (bytes/s)
system.physmem.bw_inst_read::cpu0.inst       59516413                       # Instruction read bandwidth from this memory (bytes/s)
system.physmem.bw_inst_read::cpu1.inst       41410036                       # Instruction read bandwidth from this memory (bytes/s)
system.physmem.bw_inst_read::cpu2.inst       42434146                       # Instruction read bandwidth from this memory (bytes/s)
system.physmem.bw_inst_read::cpu3.inst       42479153                       # Instruction read bandwidth from this memory (bytes/s)
system.physmem.bw_inst_read::cpu4.inst       41151795                       # Instruction read bandwidth from this memory (bytes/s)
system.physmem.bw_inst_read::cpu5.inst       41742060                       # Instruction read bandwidth from this memory (bytes/s)
system.physmem.bw_inst_read::cpu6.inst       41692625                       # Instruction read bandwidth from this memory (bytes/s)
system.physmem.bw_inst_read::cpu7.inst       26758185                       # Instruction read bandwidth from this memory (bytes/s)
system.physmem.bw_inst_read::total          337184412                       # Instruction read bandwidth from this memory (bytes/s)
system.physmem.bw_write::writebacks           8526377                       # Write bandwidth from this memory (bytes/s)
system.physmem.bw_write::total                8526377                       # Write bandwidth from this memory (bytes/s)
system.physmem.bw_total::writebacks           8526377                       # Total bandwidth to/from this memory (bytes/s)
system.physmem.bw_total::cpu0.inst           59516413                       # Total bandwidth to/from this memory (bytes/s)
system.physmem.bw_total::cpu0.data            6370434                       # Total bandwidth to/from this memory (bytes/s)
system.physmem.bw_total::cpu1.inst           41410036                       # Total bandwidth to/from this memory (bytes/s)
system.physmem.bw_total::cpu1.data            1186433                       # Total bandwidth to/from this memory (bytes/s)
system.physmem.bw_total::cpu2.inst           42434146                       # Total bandwidth to/from this memory (bytes/s)
system.physmem.bw_total::cpu2.data            1219635                       # Total bandwidth to/from this memory (bytes/s)
system.physmem.bw_total::cpu3.inst           42479153                       # Total bandwidth to/from this memory (bytes/s)
system.physmem.bw_total::cpu3.data            1306699                       # Total bandwidth to/from this memory (bytes/s)
system.physmem.bw_total::cpu4.inst           41151795                       # Total bandwidth to/from this memory (bytes/s)
system.physmem.bw_total::cpu4.data            1184957                       # Total bandwidth to/from this memory (bytes/s)
system.physmem.bw_total::cpu5.inst           41742060                       # Total bandwidth to/from this memory (bytes/s)
system.physmem.bw_total::cpu5.data            1303748                       # Total bandwidth to/from this memory (bytes/s)
system.physmem.bw_total::cpu6.inst           41692625                       # Total bandwidth to/from this memory (bytes/s)
system.physmem.bw_total::cpu6.data            1272021                       # Total bandwidth to/from this memory (bytes/s)
system.physmem.bw_total::cpu7.inst           26758185                       # Total bandwidth to/from this memory (bytes/s)
system.physmem.bw_total::cpu7.data             759966                       # Total bandwidth to/from this memory (bytes/s)
system.physmem.bw_total::total              360314681                       # Total bandwidth to/from this memory (bytes/s)
system.pwrStateResidencyTicks::UNDEFINED  86740712000                       # Cumulative time (in ticks) in various power states
system.cpu0.branchPred.lookups               18515013                       # Number of BP lookups
system.cpu0.branchPred.condPredicted         11368562                       # Number of conditional branches predicted
system.cpu0.branchPred.condIncorrect           434341                       # Number of conditional branches incorrect
system.cpu0.branchPred.BTBLookups            10060189                       # Number of BTB lookups
system.cpu0.branchPred.BTBHits                8729448                       # Number of BTB hits
system.cpu0.branchPred.BTBCorrect                   0                       # Number of correct BTB predictions (this stat may not work properly.
system.cpu0.branchPred.BTBHitPct            86.772207                       # BTB Hit Percentage
system.cpu0.branchPred.usedRAS                2298924                       # Number of times the RAS was used to get a target.
system.cpu0.branchPred.RASInCorrect             40063                       # Number of incorrect RAS predictions.
system.cpu0.branchPred.indirectLookups         569454                       # Number of indirect predictor lookups.
system.cpu0.branchPred.indirectHits            565026                       # Number of indirect target hits.
system.cpu0.branchPred.indirectMisses            4428                       # Number of indirect misses.
system.cpu0.branchPredindirectMispredicted         9461                       # Number of mispredicted indirect branches.
system.cpu0.dstage2_mmu.stage2_tlb.walker.pwrStateResidencyTicks::UNDEFINED  86740712000                       # Cumulative time (in ticks) in various power states
system.cpu0.dstage2_mmu.stage2_tlb.walker.walks            0                       # Table walker walks requested
system.cpu0.dstage2_mmu.stage2_tlb.walker.walkRequestOrigin_Requested::Data            0                       # Table walker requests started/completed, data/inst
system.cpu0.dstage2_mmu.stage2_tlb.walker.walkRequestOrigin_Requested::Inst            0                       # Table walker requests started/completed, data/inst
system.cpu0.dstage2_mmu.stage2_tlb.walker.walkRequestOrigin_Requested::total            0                       # Table walker requests started/completed, data/inst
system.cpu0.dstage2_mmu.stage2_tlb.walker.walkRequestOrigin_Completed::Data            0                       # Table walker requests started/completed, data/inst
system.cpu0.dstage2_mmu.stage2_tlb.walker.walkRequestOrigin_Completed::Inst            0                       # Table walker requests started/completed, data/inst
system.cpu0.dstage2_mmu.stage2_tlb.walker.walkRequestOrigin_Completed::total            0                       # Table walker requests started/completed, data/inst
system.cpu0.dstage2_mmu.stage2_tlb.walker.walkRequestOrigin::total            0                       # Table walker requests started/completed, data/inst
system.cpu0.dstage2_mmu.stage2_tlb.inst_hits            0                       # ITB inst hits
system.cpu0.dstage2_mmu.stage2_tlb.inst_misses            0                       # ITB inst misses
system.cpu0.dstage2_mmu.stage2_tlb.read_hits            0                       # DTB read hits
system.cpu0.dstage2_mmu.stage2_tlb.read_misses            0                       # DTB read misses
system.cpu0.dstage2_mmu.stage2_tlb.write_hits            0                       # DTB write hits
system.cpu0.dstage2_mmu.stage2_tlb.write_misses            0                       # DTB write misses
system.cpu0.dstage2_mmu.stage2_tlb.flush_tlb            0                       # Number of times complete TLB was flushed
system.cpu0.dstage2_mmu.stage2_tlb.flush_tlb_mva            0                       # Number of times TLB was flushed by MVA
system.cpu0.dstage2_mmu.stage2_tlb.flush_tlb_mva_asid            0                       # Number of times TLB was flushed by MVA & ASID
system.cpu0.dstage2_mmu.stage2_tlb.flush_tlb_asid            0                       # Number of times TLB was flushed by ASID
system.cpu0.dstage2_mmu.stage2_tlb.flush_entries            0                       # Number of entries that have been flushed from TLB
system.cpu0.dstage2_mmu.stage2_tlb.align_faults            0                       # Number of TLB faults due to alignment restrictions
system.cpu0.dstage2_mmu.stage2_tlb.prefetch_faults            0                       # Number of TLB faults due to prefetch
system.cpu0.dstage2_mmu.stage2_tlb.domain_faults            0                       # Number of TLB faults due to domain restrictions
system.cpu0.dstage2_mmu.stage2_tlb.perms_faults            0                       # Number of TLB faults due to permissions restrictions
system.cpu0.dstage2_mmu.stage2_tlb.read_accesses            0                       # DTB read accesses
system.cpu0.dstage2_mmu.stage2_tlb.write_accesses            0                       # DTB write accesses
system.cpu0.dstage2_mmu.stage2_tlb.inst_accesses            0                       # ITB inst accesses
system.cpu0.dstage2_mmu.stage2_tlb.hits             0                       # DTB hits
system.cpu0.dstage2_mmu.stage2_tlb.misses            0                       # DTB misses
system.cpu0.dstage2_mmu.stage2_tlb.accesses            0                       # DTB accesses
system.cpu0.dtb.walker.pwrStateResidencyTicks::UNDEFINED  86740712000                       # Cumulative time (in ticks) in various power states
system.cpu0.dtb.walker.walks                        0                       # Table walker walks requested
system.cpu0.dtb.walker.walkRequestOrigin_Requested::Data            0                       # Table walker requests started/completed, data/inst
system.cpu0.dtb.walker.walkRequestOrigin_Requested::Inst            0                       # Table walker requests started/completed, data/inst
system.cpu0.dtb.walker.walkRequestOrigin_Requested::total            0                       # Table walker requests started/completed, data/inst
system.cpu0.dtb.walker.walkRequestOrigin_Completed::Data            0                       # Table walker requests started/completed, data/inst
system.cpu0.dtb.walker.walkRequestOrigin_Completed::Inst            0                       # Table walker requests started/completed, data/inst
system.cpu0.dtb.walker.walkRequestOrigin_Completed::total            0                       # Table walker requests started/completed, data/inst
system.cpu0.dtb.walker.walkRequestOrigin::total            0                       # Table walker requests started/completed, data/inst
system.cpu0.dtb.inst_hits                           0                       # ITB inst hits
system.cpu0.dtb.inst_misses                         0                       # ITB inst misses
system.cpu0.dtb.read_hits                           0                       # DTB read hits
system.cpu0.dtb.read_misses                         0                       # DTB read misses
system.cpu0.dtb.write_hits                          0                       # DTB write hits
system.cpu0.dtb.write_misses                        0                       # DTB write misses
system.cpu0.dtb.flush_tlb                           0                       # Number of times complete TLB was flushed
system.cpu0.dtb.flush_tlb_mva                       0                       # Number of times TLB was flushed by MVA
system.cpu0.dtb.flush_tlb_mva_asid                  0                       # Number of times TLB was flushed by MVA & ASID
system.cpu0.dtb.flush_tlb_asid                      0                       # Number of times TLB was flushed by ASID
system.cpu0.dtb.flush_entries                       0                       # Number of entries that have been flushed from TLB
system.cpu0.dtb.align_faults                        0                       # Number of TLB faults due to alignment restrictions
system.cpu0.dtb.prefetch_faults                     0                       # Number of TLB faults due to prefetch
system.cpu0.dtb.domain_faults                       0                       # Number of TLB faults due to domain restrictions
system.cpu0.dtb.perms_faults                        0                       # Number of TLB faults due to permissions restrictions
system.cpu0.dtb.read_accesses                       0                       # DTB read accesses
system.cpu0.dtb.write_accesses                      0                       # DTB write accesses
system.cpu0.dtb.inst_accesses                       0                       # ITB inst accesses
system.cpu0.dtb.hits                                0                       # DTB hits
system.cpu0.dtb.misses                              0                       # DTB misses
system.cpu0.dtb.accesses                            0                       # DTB accesses
system.cpu0.istage2_mmu.stage2_tlb.walker.pwrStateResidencyTicks::UNDEFINED  86740712000                       # Cumulative time (in ticks) in various power states
system.cpu0.istage2_mmu.stage2_tlb.walker.walks            0                       # Table walker walks requested
system.cpu0.istage2_mmu.stage2_tlb.walker.walkRequestOrigin_Requested::Data            0                       # Table walker requests started/completed, data/inst
system.cpu0.istage2_mmu.stage2_tlb.walker.walkRequestOrigin_Requested::Inst            0                       # Table walker requests started/completed, data/inst
system.cpu0.istage2_mmu.stage2_tlb.walker.walkRequestOrigin_Requested::total            0                       # Table walker requests started/completed, data/inst
system.cpu0.istage2_mmu.stage2_tlb.walker.walkRequestOrigin_Completed::Data            0                       # Table walker requests started/completed, data/inst
system.cpu0.istage2_mmu.stage2_tlb.walker.walkRequestOrigin_Completed::Inst            0                       # Table walker requests started/completed, data/inst
system.cpu0.istage2_mmu.stage2_tlb.walker.walkRequestOrigin_Completed::total            0                       # Table walker requests started/completed, data/inst
system.cpu0.istage2_mmu.stage2_tlb.walker.walkRequestOrigin::total            0                       # Table walker requests started/completed, data/inst
system.cpu0.istage2_mmu.stage2_tlb.inst_hits            0                       # ITB inst hits
system.cpu0.istage2_mmu.stage2_tlb.inst_misses            0                       # ITB inst misses
system.cpu0.istage2_mmu.stage2_tlb.read_hits            0                       # DTB read hits
system.cpu0.istage2_mmu.stage2_tlb.read_misses            0                       # DTB read misses
system.cpu0.istage2_mmu.stage2_tlb.write_hits            0                       # DTB write hits
system.cpu0.istage2_mmu.stage2_tlb.write_misses            0                       # DTB write misses
system.cpu0.istage2_mmu.stage2_tlb.flush_tlb            0                       # Number of times complete TLB was flushed
system.cpu0.istage2_mmu.stage2_tlb.flush_tlb_mva            0                       # Number of times TLB was flushed by MVA
system.cpu0.istage2_mmu.stage2_tlb.flush_tlb_mva_asid            0                       # Number of times TLB was flushed by MVA & ASID
system.cpu0.istage2_mmu.stage2_tlb.flush_tlb_asid            0                       # Number of times TLB was flushed by ASID
system.cpu0.istage2_mmu.stage2_tlb.flush_entries            0                       # Number of entries that have been flushed from TLB
system.cpu0.istage2_mmu.stage2_tlb.align_faults            0                       # Number of TLB faults due to alignment restrictions
system.cpu0.istage2_mmu.stage2_tlb.prefetch_faults            0                       # Number of TLB faults due to prefetch
system.cpu0.istage2_mmu.stage2_tlb.domain_faults            0                       # Number of TLB faults due to domain restrictions
system.cpu0.istage2_mmu.stage2_tlb.perms_faults            0                       # Number of TLB faults due to permissions restrictions
system.cpu0.istage2_mmu.stage2_tlb.read_accesses            0                       # DTB read accesses
system.cpu0.istage2_mmu.stage2_tlb.write_accesses            0                       # DTB write accesses
system.cpu0.istage2_mmu.stage2_tlb.inst_accesses            0                       # ITB inst accesses
system.cpu0.istage2_mmu.stage2_tlb.hits             0                       # DTB hits
system.cpu0.istage2_mmu.stage2_tlb.misses            0                       # DTB misses
system.cpu0.istage2_mmu.stage2_tlb.accesses            0                       # DTB accesses
system.cpu0.itb.walker.pwrStateResidencyTicks::UNDEFINED  86740712000                       # Cumulative time (in ticks) in various power states
system.cpu0.itb.walker.walks                        0                       # Table walker walks requested
system.cpu0.itb.walker.walkRequestOrigin_Requested::Data            0                       # Table walker requests started/completed, data/inst
system.cpu0.itb.walker.walkRequestOrigin_Requested::Inst            0                       # Table walker requests started/completed, data/inst
system.cpu0.itb.walker.walkRequestOrigin_Requested::total            0                       # Table walker requests started/completed, data/inst
system.cpu0.itb.walker.walkRequestOrigin_Completed::Data            0                       # Table walker requests started/completed, data/inst
system.cpu0.itb.walker.walkRequestOrigin_Completed::Inst            0                       # Table walker requests started/completed, data/inst
system.cpu0.itb.walker.walkRequestOrigin_Completed::total            0                       # Table walker requests started/completed, data/inst
system.cpu0.itb.walker.walkRequestOrigin::total            0                       # Table walker requests started/completed, data/inst
system.cpu0.itb.inst_hits                           0                       # ITB inst hits
system.cpu0.itb.inst_misses                         0                       # ITB inst misses
system.cpu0.itb.read_hits                           0                       # DTB read hits
system.cpu0.itb.read_misses                         0                       # DTB read misses
system.cpu0.itb.write_hits                          0                       # DTB write hits
system.cpu0.itb.write_misses                        0                       # DTB write misses
system.cpu0.itb.flush_tlb                           0                       # Number of times complete TLB was flushed
system.cpu0.itb.flush_tlb_mva                       0                       # Number of times TLB was flushed by MVA
system.cpu0.itb.flush_tlb_mva_asid                  0                       # Number of times TLB was flushed by MVA & ASID
system.cpu0.itb.flush_tlb_asid                      0                       # Number of times TLB was flushed by ASID
system.cpu0.itb.flush_entries                       0                       # Number of entries that have been flushed from TLB
system.cpu0.itb.align_faults                        0                       # Number of TLB faults due to alignment restrictions
system.cpu0.itb.prefetch_faults                     0                       # Number of TLB faults due to prefetch
system.cpu0.itb.domain_faults                       0                       # Number of TLB faults due to domain restrictions
system.cpu0.itb.perms_faults                        0                       # Number of TLB faults due to permissions restrictions
system.cpu0.itb.read_accesses                       0                       # DTB read accesses
system.cpu0.itb.write_accesses                      0                       # DTB write accesses
system.cpu0.itb.inst_accesses                       0                       # ITB inst accesses
system.cpu0.itb.hits                                0                       # DTB hits
system.cpu0.itb.misses                              0                       # DTB misses
system.cpu0.itb.accesses                            0                       # DTB accesses
system.cpu0.workload.num_syscalls              252501                       # Number of system calls
system.cpu0.pwrStateResidencyTicks::ON    86740712000                       # Cumulative time (in ticks) in various power states
system.cpu0.numCycles                        86740713                       # number of cpu cycles simulated
system.cpu0.numWorkItemsStarted                     0                       # number of work items this cpu started
system.cpu0.numWorkItemsCompleted                   0                       # number of work items this cpu completed
system.cpu0.fetch.icacheStallCycles          16843052                       # Number of cycles fetch is stalled on an Icache miss
system.cpu0.fetch.Insts                     103759247                       # Number of instructions fetch has processed
system.cpu0.fetch.Branches                   18515013                       # Number of branches that fetch encountered
system.cpu0.fetch.predictedBranches          11593398                       # Number of branches that fetch has predicted taken
system.cpu0.fetch.Cycles                     68615413                       # Number of cycles fetch has run and was not squashing or blocked
system.cpu0.fetch.SquashCycles                 876203                       # Number of cycles fetch has spent squashing
system.cpu0.fetch.MiscStallCycles                   7                       # Number of cycles fetch has spent waiting on interrupts, or bad addresses, or out of MSHRs
system.cpu0.fetch.PendingTrapStallCycles          178                       # Number of stall cycles due to pending traps
system.cpu0.fetch.IcacheWaitRetryStallCycles            2                       # Number of stall cycles due to full MSHR
system.cpu0.fetch.CacheLines                 14375724                       # Number of cache lines fetched
system.cpu0.fetch.IcacheSquashes                82946                       # Number of outstanding Icache misses that were squashed
system.cpu0.fetch.rateDist::samples          85896753                       # Number of instructions fetched each cycle (Total)
system.cpu0.fetch.rateDist::mean             1.365198                       # Number of instructions fetched each cycle (Total)
system.cpu0.fetch.rateDist::stdev            0.867331                       # Number of instructions fetched each cycle (Total)
system.cpu0.fetch.rateDist::underflows              0      0.00%      0.00% # Number of instructions fetched each cycle (Total)
system.cpu0.fetch.rateDist::0                22351835     26.02%     26.02% # Number of instructions fetched each cycle (Total)
system.cpu0.fetch.rateDist::1                 9823754     11.44%     37.46% # Number of instructions fetched each cycle (Total)
system.cpu0.fetch.rateDist::2                53721164     62.54%    100.00% # Number of instructions fetched each cycle (Total)
system.cpu0.fetch.rateDist::overflows               0      0.00%    100.00% # Number of instructions fetched each cycle (Total)
system.cpu0.fetch.rateDist::min_value               0                       # Number of instructions fetched each cycle (Total)
system.cpu0.fetch.rateDist::max_value               2                       # Number of instructions fetched each cycle (Total)
system.cpu0.fetch.rateDist::total            85896753                       # Number of instructions fetched each cycle (Total)
system.cpu0.fetch.branchRate                 0.213452                       # Number of branch fetches per cycle
system.cpu0.fetch.rate                       1.196200                       # Number of inst fetches per cycle
system.cpu0.decode.IdleCycles                14607208                       # Number of cycles decode is idle
system.cpu0.decode.BlockedCycles             11699871                       # Number of cycles decode is blocked
system.cpu0.decode.RunCycles                 47152617                       # Number of cycles decode is running
system.cpu0.decode.UnblockCycles             12031821                       # Number of cycles decode is unblocking
system.cpu0.decode.SquashCycles                405236                       # Number of cycles decode is squashing
system.cpu0.decode.BranchResolved             4921819                       # Number of times decode resolved a branch
system.cpu0.decode.BranchMispred                33139                       # Number of times decode detected a branch misprediction
system.cpu0.decode.DecodedInsts             114810028                       # Number of instructions handled by decode
system.cpu0.decode.SquashedInsts                57269                       # Number of squashed instructions handled by decode
system.cpu0.rename.SquashCycles                405236                       # Number of cycles rename is squashing
system.cpu0.rename.IdleCycles                17231064                       # Number of cycles rename is idle
system.cpu0.rename.BlockCycles                1337151                       # Number of cycles rename is blocking
system.cpu0.rename.serializeStallCycles        582430                       # count of cycles rename stalled for serializing inst
system.cpu0.rename.RunCycles                 56530391                       # Number of cycles rename is running
system.cpu0.rename.UnblockCycles              9810481                       # Number of cycles rename is unblocking
system.cpu0.rename.RenamedInsts             114203670                       # Number of instructions processed by rename
system.cpu0.rename.IQFullEvents               7461919                       # Number of times rename has blocked due to IQ full
system.cpu0.rename.LQFullEvents                 51483                       # Number of times rename has blocked due to LQ full
system.cpu0.rename.SQFullEvents                  1789                       # Number of times rename has blocked due to SQ full
system.cpu0.rename.RenamedOperands          143358684                       # Number of destination operands rename has renamed
system.cpu0.rename.RenameLookups            527448575                       # Number of register rename lookups that rename has made
system.cpu0.rename.int_rename_lookups       145730944                       # Number of integer rename lookups
system.cpu0.rename.fp_rename_lookups               16                       # Number of floating rename lookups
system.cpu0.rename.CommittedMaps            124242750                       # Number of HB maps that are committed
system.cpu0.rename.UndoneMaps                19115934                       # Number of HB maps that are undone due to squashing
system.cpu0.rename.serializingInsts             20009                       # count of serializing insts renamed
system.cpu0.rename.tempSerializingInsts          8653                       # count of temporary serializing insts renamed
system.cpu0.rename.skidInsts                 10536566                       # count of insts added to the skid buffer
system.cpu0.memDep0.insertedLoads            14767007                       # Number of loads inserted to the mem dependence unit.
system.cpu0.memDep0.insertedStores            9324515                       # Number of stores inserted to the mem dependence unit.
system.cpu0.memDep0.conflictingLoads          4501682                       # Number of conflicting loads.
system.cpu0.memDep0.conflictingStores         1683684                       # Number of conflicting stores.
system.cpu0.iq.iqInstsAdded                 112991863                       # Number of instructions added to the IQ (excludes non-spec)
system.cpu0.iq.iqNonSpecInstsAdded              17513                       # Number of non-speculative instructions added to the IQ
system.cpu0.iq.iqInstsIssued                102540338                       # Number of instructions issued
system.cpu0.iq.iqSquashedInstsIssued          1458135                       # Number of squashed instructions issued
system.cpu0.iq.iqSquashedInstsExamined       12358689                       # Number of squashed instructions iterated over during squash; mainly for profiling
system.cpu0.iq.iqSquashedOperandsExamined     49590554                       # Number of squashed operands that are examined and possibly removed from graph
system.cpu0.iq.iqSquashedNonSpecRemoved           582                       # Number of squashed non-spec instructions that were removed
system.cpu0.iq.issued_per_cycle::samples     85896753                       # Number of insts issued each cycle
system.cpu0.iq.issued_per_cycle::mean        1.193763                       # Number of insts issued each cycle
system.cpu0.iq.issued_per_cycle::stdev       0.535776                       # Number of insts issued each cycle
system.cpu0.iq.issued_per_cycle::underflows            0      0.00%      0.00% # Number of insts issued each cycle
system.cpu0.iq.issued_per_cycle::0            5619240      6.54%      6.54% # Number of insts issued each cycle
system.cpu0.iq.issued_per_cycle::1           58014688     67.54%     74.08% # Number of insts issued each cycle
system.cpu0.iq.issued_per_cycle::2           22262825     25.92%    100.00% # Number of insts issued each cycle
system.cpu0.iq.issued_per_cycle::overflows            0      0.00%    100.00% # Number of insts issued each cycle
system.cpu0.iq.issued_per_cycle::min_value            0                       # Number of insts issued each cycle
system.cpu0.iq.issued_per_cycle::max_value            2                       # Number of insts issued each cycle
system.cpu0.iq.issued_per_cycle::total       85896753                       # Number of insts issued each cycle
system.cpu0.iq.fu_full::No_OpClass                  0      0.00%      0.00% # attempts to use FU when none available
system.cpu0.iq.fu_full::IntAlu               61716264     94.08%     94.08% # attempts to use FU when none available
system.cpu0.iq.fu_full::IntMult                     0      0.00%     94.08% # attempts to use FU when none available
system.cpu0.iq.fu_full::IntDiv                      0      0.00%     94.08% # attempts to use FU when none available
system.cpu0.iq.fu_full::FloatAdd                    0      0.00%     94.08% # attempts to use FU when none available
system.cpu0.iq.fu_full::FloatCmp                    0      0.00%     94.08% # attempts to use FU when none available
system.cpu0.iq.fu_full::FloatCvt                    0      0.00%     94.08% # attempts to use FU when none available
system.cpu0.iq.fu_full::FloatMult                   0      0.00%     94.08% # attempts to use FU when none available
system.cpu0.iq.fu_full::FloatMultAcc                0      0.00%     94.08% # attempts to use FU when none available
system.cpu0.iq.fu_full::FloatDiv                    0      0.00%     94.08% # attempts to use FU when none available
system.cpu0.iq.fu_full::FloatMisc                   0      0.00%     94.08% # attempts to use FU when none available
system.cpu0.iq.fu_full::FloatSqrt                   0      0.00%     94.08% # attempts to use FU when none available
system.cpu0.iq.fu_full::SimdAdd                     0      0.00%     94.08% # attempts to use FU when none available
system.cpu0.iq.fu_full::SimdAddAcc                  0      0.00%     94.08% # attempts to use FU when none available
system.cpu0.iq.fu_full::SimdAlu                     0      0.00%     94.08% # attempts to use FU when none available
system.cpu0.iq.fu_full::SimdCmp                     0      0.00%     94.08% # attempts to use FU when none available
system.cpu0.iq.fu_full::SimdCvt                     0      0.00%     94.08% # attempts to use FU when none available
system.cpu0.iq.fu_full::SimdMisc                    0      0.00%     94.08% # attempts to use FU when none available
system.cpu0.iq.fu_full::SimdMult                    0      0.00%     94.08% # attempts to use FU when none available
system.cpu0.iq.fu_full::SimdMultAcc                 0      0.00%     94.08% # attempts to use FU when none available
system.cpu0.iq.fu_full::SimdShift                   0      0.00%     94.08% # attempts to use FU when none available
system.cpu0.iq.fu_full::SimdShiftAcc                0      0.00%     94.08% # attempts to use FU when none available
system.cpu0.iq.fu_full::SimdSqrt                    0      0.00%     94.08% # attempts to use FU when none available
system.cpu0.iq.fu_full::SimdFloatAdd                0      0.00%     94.08% # attempts to use FU when none available
system.cpu0.iq.fu_full::SimdFloatAlu                0      0.00%     94.08% # attempts to use FU when none available
system.cpu0.iq.fu_full::SimdFloatCmp                0      0.00%     94.08% # attempts to use FU when none available
system.cpu0.iq.fu_full::SimdFloatCvt                0      0.00%     94.08% # attempts to use FU when none available
system.cpu0.iq.fu_full::SimdFloatDiv                0      0.00%     94.08% # attempts to use FU when none available
system.cpu0.iq.fu_full::SimdFloatMisc               0      0.00%     94.08% # attempts to use FU when none available
system.cpu0.iq.fu_full::SimdFloatMult               0      0.00%     94.08% # attempts to use FU when none available
system.cpu0.iq.fu_full::SimdFloatMultAcc            0      0.00%     94.08% # attempts to use FU when none available
system.cpu0.iq.fu_full::SimdFloatSqrt               0      0.00%     94.08% # attempts to use FU when none available
system.cpu0.iq.fu_full::MemRead               2555291      3.90%     97.98% # attempts to use FU when none available
system.cpu0.iq.fu_full::MemWrite              1325046      2.02%    100.00% # attempts to use FU when none available
system.cpu0.iq.fu_full::FloatMemRead                0      0.00%    100.00% # attempts to use FU when none available
system.cpu0.iq.fu_full::FloatMemWrite               0      0.00%    100.00% # attempts to use FU when none available
system.cpu0.iq.fu_full::IprAccess                   0      0.00%    100.00% # attempts to use FU when none available
system.cpu0.iq.fu_full::InstPrefetch                0      0.00%    100.00% # attempts to use FU when none available
system.cpu0.iq.FU_type_0::No_OpClass                0      0.00%      0.00% # Type of FU issued
system.cpu0.iq.FU_type_0::IntAlu             78915049     76.96%     76.96% # Type of FU issued
system.cpu0.iq.FU_type_0::IntMult              523912      0.51%     77.47% # Type of FU issued
system.cpu0.iq.FU_type_0::IntDiv                    0      0.00%     77.47% # Type of FU issued
system.cpu0.iq.FU_type_0::FloatAdd                  0      0.00%     77.47% # Type of FU issued
system.cpu0.iq.FU_type_0::FloatCmp                  0      0.00%     77.47% # Type of FU issued
system.cpu0.iq.FU_type_0::FloatCvt                  0      0.00%     77.47% # Type of FU issued
system.cpu0.iq.FU_type_0::FloatMult                 0      0.00%     77.47% # Type of FU issued
system.cpu0.iq.FU_type_0::FloatMultAcc              0      0.00%     77.47% # Type of FU issued
system.cpu0.iq.FU_type_0::FloatDiv                  0      0.00%     77.47% # Type of FU issued
system.cpu0.iq.FU_type_0::FloatMisc                 0      0.00%     77.47% # Type of FU issued
system.cpu0.iq.FU_type_0::FloatSqrt                 0      0.00%     77.47% # Type of FU issued
system.cpu0.iq.FU_type_0::SimdAdd                   0      0.00%     77.47% # Type of FU issued
system.cpu0.iq.FU_type_0::SimdAddAcc                0      0.00%     77.47% # Type of FU issued
system.cpu0.iq.FU_type_0::SimdAlu                   0      0.00%     77.47% # Type of FU issued
system.cpu0.iq.FU_type_0::SimdCmp                   0      0.00%     77.47% # Type of FU issued
system.cpu0.iq.FU_type_0::SimdCvt                   0      0.00%     77.47% # Type of FU issued
system.cpu0.iq.FU_type_0::SimdMisc                  0      0.00%     77.47% # Type of FU issued
system.cpu0.iq.FU_type_0::SimdMult                  0      0.00%     77.47% # Type of FU issued
system.cpu0.iq.FU_type_0::SimdMultAcc               0      0.00%     77.47% # Type of FU issued
system.cpu0.iq.FU_type_0::SimdShift                 0      0.00%     77.47% # Type of FU issued
system.cpu0.iq.FU_type_0::SimdShiftAcc              0      0.00%     77.47% # Type of FU issued
system.cpu0.iq.FU_type_0::SimdSqrt                  0      0.00%     77.47% # Type of FU issued
system.cpu0.iq.FU_type_0::SimdFloatAdd              0      0.00%     77.47% # Type of FU issued
system.cpu0.iq.FU_type_0::SimdFloatAlu              0      0.00%     77.47% # Type of FU issued
system.cpu0.iq.FU_type_0::SimdFloatCmp              0      0.00%     77.47% # Type of FU issued
system.cpu0.iq.FU_type_0::SimdFloatCvt              0      0.00%     77.47% # Type of FU issued
system.cpu0.iq.FU_type_0::SimdFloatDiv              0      0.00%     77.47% # Type of FU issued
system.cpu0.iq.FU_type_0::SimdFloatMisc         11308      0.01%     77.48% # Type of FU issued
system.cpu0.iq.FU_type_0::SimdFloatMult             0      0.00%     77.48% # Type of FU issued
system.cpu0.iq.FU_type_0::SimdFloatMultAcc            0      0.00%     77.48% # Type of FU issued
system.cpu0.iq.FU_type_0::SimdFloatSqrt             0      0.00%     77.48% # Type of FU issued
system.cpu0.iq.FU_type_0::MemRead            14277739     13.92%     91.41% # Type of FU issued
system.cpu0.iq.FU_type_0::MemWrite            8812314      8.59%    100.00% # Type of FU issued
system.cpu0.iq.FU_type_0::FloatMemRead              0      0.00%    100.00% # Type of FU issued
system.cpu0.iq.FU_type_0::FloatMemWrite            16      0.00%    100.00% # Type of FU issued
system.cpu0.iq.FU_type_0::IprAccess                 0      0.00%    100.00% # Type of FU issued
system.cpu0.iq.FU_type_0::InstPrefetch              0      0.00%    100.00% # Type of FU issued
system.cpu0.iq.FU_type_0::total             102540338                       # Type of FU issued
system.cpu0.iq.rate                          1.182148                       # Inst issue rate
system.cpu0.iq.fu_busy_cnt                   65596601                       # FU busy when requested
system.cpu0.iq.fu_busy_rate                  0.639715                       # FU busy rate (busy events/executed inst)
system.cpu0.iq.int_inst_queue_reads         358032133                       # Number of integer instruction queue reads
system.cpu0.iq.int_inst_queue_writes        125369870                       # Number of integer instruction queue writes
system.cpu0.iq.int_inst_queue_wakeup_accesses    102139857                       # Number of integer instruction queue wakeup accesses
system.cpu0.iq.fp_inst_queue_reads                 32                       # Number of floating instruction queue reads
system.cpu0.iq.fp_inst_queue_writes                16                       # Number of floating instruction queue writes
system.cpu0.iq.fp_inst_queue_wakeup_accesses           16                       # Number of floating instruction queue wakeup accesses
system.cpu0.iq.int_alu_accesses             168136923                       # Number of integer alu accesses
system.cpu0.iq.fp_alu_accesses                     16                       # Number of floating point alu accesses
system.cpu0.iew.lsq.thread0.forwLoads         1948547                       # Number of loads that had data forwarded from stores
system.cpu0.iew.lsq.thread0.invAddrLoads            0                       # Number of loads ignored due to an invalid address
system.cpu0.iew.lsq.thread0.squashedLoads      1166339                       # Number of loads squashed
system.cpu0.iew.lsq.thread0.ignoredResponses          354                       # Number of memory responses ignored because the instruction is squashed
system.cpu0.iew.lsq.thread0.memOrderViolation         1835                       # Number of memory ordering violations
system.cpu0.iew.lsq.thread0.squashedStores       667105                       # Number of stores squashed
system.cpu0.iew.lsq.thread0.invAddrSwpfs            0                       # Number of software prefetches ignored due to an invalid address
system.cpu0.iew.lsq.thread0.blockedLoads            0                       # Number of blocked loads due to partial load-store forwarding
system.cpu0.iew.lsq.thread0.rescheduledLoads       179626                       # Number of loads that were rescheduled
system.cpu0.iew.lsq.thread0.cacheBlocked          752                       # Number of times an access to memory failed due to the cache being blocked
system.cpu0.iew.iewIdleCycles                       0                       # Number of cycles IEW is idle
system.cpu0.iew.iewSquashCycles                405236                       # Number of cycles IEW is squashing
system.cpu0.iew.iewBlockCycles                1313384                       # Number of cycles IEW is blocking
system.cpu0.iew.iewUnblockCycles                18123                       # Number of cycles IEW is unblocking
system.cpu0.iew.iewDispatchedInsts          113009412                       # Number of instructions dispatched to IQ
system.cpu0.iew.iewDispSquashedInsts            78060                       # Number of squashed instructions skipped by dispatch
system.cpu0.iew.iewDispLoadInsts             14767007                       # Number of dispatched load instructions
system.cpu0.iew.iewDispStoreInsts             9324515                       # Number of dispatched store instructions
system.cpu0.iew.iewDispNonSpecInsts              8585                       # Number of dispatched non-speculative instructions
system.cpu0.iew.iewIQFullEvents                   226                       # Number of times the IQ has become full, causing a stall
system.cpu0.iew.iewLSQFullEvents                  103                       # Number of times the LSQ has become full, causing a stall
system.cpu0.iew.memOrderViolationEvents          1835                       # Number of memory order violations
system.cpu0.iew.predictedTakenIncorrect        216054                       # Number of branches that were predicted taken incorrectly
system.cpu0.iew.predictedNotTakenIncorrect       208894                       # Number of branches that were predicted not taken incorrectly
system.cpu0.iew.branchMispredicts              424948                       # Number of branch mispredicts detected at execute
system.cpu0.iew.iewExecutedInsts            102403811                       # Number of executed instructions
system.cpu0.iew.iewExecLoadInsts             14232535                       # Number of load instructions executed
system.cpu0.iew.iewExecSquashedInsts           136527                       # Number of squashed instructions skipped in execute
system.cpu0.iew.exec_swp                            0                       # number of swp insts executed
system.cpu0.iew.exec_nop                           36                       # number of nop insts executed
system.cpu0.iew.exec_refs                    23017612                       # number of memory reference insts executed
system.cpu0.iew.exec_branches                15973021                       # Number of branches executed
system.cpu0.iew.exec_stores                   8785077                       # Number of stores executed
system.cpu0.iew.exec_rate                    1.180574                       # Inst execution rate
system.cpu0.iew.wb_sent                     102163313                       # cumulative count of insts sent to commit
system.cpu0.iew.wb_count                    102139873                       # cumulative count of insts written-back
system.cpu0.iew.wb_producers                 74143691                       # num instructions producing a value
system.cpu0.iew.wb_consumers                171446011                       # num instructions consuming a value
system.cpu0.iew.wb_rate                      1.177531                       # insts written-back per cycle
system.cpu0.iew.wb_fanout                    0.432461                       # average fanout of values written-back
system.cpu0.commit.commitSquashedInsts       12358719                       # The number of squashed insts skipped by commit
system.cpu0.commit.commitNonSpecStalls          16931                       # The number of times commit has been forced to stall to communicate backwards
system.cpu0.commit.branchMispredicts           401476                       # The number of times a branch was mispredicted
system.cpu0.commit.committed_per_cycle::samples     84182838                       # Number of insts commited each cycle
system.cpu0.commit.committed_per_cycle::mean     1.195620                       # Number of insts commited each cycle
system.cpu0.commit.committed_per_cycle::stdev     1.041144                       # Number of insts commited each cycle
system.cpu0.commit.committed_per_cycle::underflows            0      0.00%      0.00% # Number of insts commited each cycle
system.cpu0.commit.committed_per_cycle::0      9900090     11.76%     11.76% # Number of insts commited each cycle
system.cpu0.commit.committed_per_cycle::1     60845322     72.28%     84.04% # Number of insts commited each cycle
system.cpu0.commit.committed_per_cycle::2      8037544      9.55%     93.59% # Number of insts commited each cycle
system.cpu0.commit.committed_per_cycle::3      2484151      2.95%     96.54% # Number of insts commited each cycle
system.cpu0.commit.committed_per_cycle::4      1036961      1.23%     97.77% # Number of insts commited each cycle
system.cpu0.commit.committed_per_cycle::5       299175      0.36%     98.12% # Number of insts commited each cycle
system.cpu0.commit.committed_per_cycle::6       557344      0.66%     98.79% # Number of insts commited each cycle
system.cpu0.commit.committed_per_cycle::7       887967      1.05%     99.84% # Number of insts commited each cycle
system.cpu0.commit.committed_per_cycle::8       134284      0.16%    100.00% # Number of insts commited each cycle
system.cpu0.commit.committed_per_cycle::overflows            0      0.00%    100.00% # Number of insts commited each cycle
system.cpu0.commit.committed_per_cycle::min_value            0                       # Number of insts commited each cycle
system.cpu0.commit.committed_per_cycle::max_value            8                       # Number of insts commited each cycle
system.cpu0.commit.committed_per_cycle::total     84182838                       # Number of insts commited each cycle
system.cpu0.commit.committedInsts            89081578                       # Number of instructions committed
system.cpu0.commit.committedOps             100650687                       # Number of ops (including micro ops) committed
system.cpu0.commit.swp_count                        0                       # Number of s/w prefetches committed
system.cpu0.commit.refs                      22258078                       # Number of memory references committed
system.cpu0.commit.loads                     13600668                       # Number of loads committed
system.cpu0.commit.membars                       8875                       # Number of memory barriers committed
system.cpu0.commit.branches                  15823493                       # Number of branches committed
system.cpu0.commit.fp_insts                        16                       # Number of committed floating point instructions.
system.cpu0.commit.int_insts                 90978794                       # Number of committed integer instructions.
system.cpu0.commit.function_calls             2565578                       # Number of function calls committed.
system.cpu0.commit.op_class_0::No_OpClass            0      0.00%      0.00% # Class of committed instruction
system.cpu0.commit.op_class_0::IntAlu        77876152     77.37%     77.37% # Class of committed instruction
system.cpu0.commit.op_class_0::IntMult         505149      0.50%     77.87% # Class of committed instruction
system.cpu0.commit.op_class_0::IntDiv               0      0.00%     77.87% # Class of committed instruction
system.cpu0.commit.op_class_0::FloatAdd             0      0.00%     77.87% # Class of committed instruction
system.cpu0.commit.op_class_0::FloatCmp             0      0.00%     77.87% # Class of committed instruction
system.cpu0.commit.op_class_0::FloatCvt             0      0.00%     77.87% # Class of committed instruction
system.cpu0.commit.op_class_0::FloatMult            0      0.00%     77.87% # Class of committed instruction
system.cpu0.commit.op_class_0::FloatMultAcc            0      0.00%     77.87% # Class of committed instruction
system.cpu0.commit.op_class_0::FloatDiv             0      0.00%     77.87% # Class of committed instruction
system.cpu0.commit.op_class_0::FloatMisc            0      0.00%     77.87% # Class of committed instruction
system.cpu0.commit.op_class_0::FloatSqrt            0      0.00%     77.87% # Class of committed instruction
system.cpu0.commit.op_class_0::SimdAdd              0      0.00%     77.87% # Class of committed instruction
system.cpu0.commit.op_class_0::SimdAddAcc            0      0.00%     77.87% # Class of committed instruction
system.cpu0.commit.op_class_0::SimdAlu              0      0.00%     77.87% # Class of committed instruction
system.cpu0.commit.op_class_0::SimdCmp              0      0.00%     77.87% # Class of committed instruction
system.cpu0.commit.op_class_0::SimdCvt              0      0.00%     77.87% # Class of committed instruction
system.cpu0.commit.op_class_0::SimdMisc             0      0.00%     77.87% # Class of committed instruction
system.cpu0.commit.op_class_0::SimdMult             0      0.00%     77.87% # Class of committed instruction
system.cpu0.commit.op_class_0::SimdMultAcc            0      0.00%     77.87% # Class of committed instruction
system.cpu0.commit.op_class_0::SimdShift            0      0.00%     77.87% # Class of committed instruction
system.cpu0.commit.op_class_0::SimdShiftAcc            0      0.00%     77.87% # Class of committed instruction
system.cpu0.commit.op_class_0::SimdSqrt             0      0.00%     77.87% # Class of committed instruction
system.cpu0.commit.op_class_0::SimdFloatAdd            0      0.00%     77.87% # Class of committed instruction
system.cpu0.commit.op_class_0::SimdFloatAlu            0      0.00%     77.87% # Class of committed instruction
system.cpu0.commit.op_class_0::SimdFloatCmp            0      0.00%     77.87% # Class of committed instruction
system.cpu0.commit.op_class_0::SimdFloatCvt            0      0.00%     77.87% # Class of committed instruction
system.cpu0.commit.op_class_0::SimdFloatDiv            0      0.00%     77.87% # Class of committed instruction
system.cpu0.commit.op_class_0::SimdFloatMisc        11308      0.01%     77.89% # Class of committed instruction
system.cpu0.commit.op_class_0::SimdFloatMult            0      0.00%     77.89% # Class of committed instruction
system.cpu0.commit.op_class_0::SimdFloatMultAcc            0      0.00%     77.89% # Class of committed instruction
system.cpu0.commit.op_class_0::SimdFloatSqrt            0      0.00%     77.89% # Class of committed instruction
system.cpu0.commit.op_class_0::MemRead       13600668     13.51%     91.40% # Class of committed instruction
system.cpu0.commit.op_class_0::MemWrite       8657394      8.60%    100.00% # Class of committed instruction
system.cpu0.commit.op_class_0::FloatMemRead            0      0.00%    100.00% # Class of committed instruction
system.cpu0.commit.op_class_0::FloatMemWrite           16      0.00%    100.00% # Class of committed instruction
system.cpu0.commit.op_class_0::IprAccess            0      0.00%    100.00% # Class of committed instruction
system.cpu0.commit.op_class_0::InstPrefetch            0      0.00%    100.00% # Class of committed instruction
system.cpu0.commit.op_class_0::total        100650687                       # Class of committed instruction
system.cpu0.commit.bw_lim_events               134284                       # number cycles where commit BW limit reached
system.cpu0.rob.rob_reads                   197030394                       # The number of ROB reads
system.cpu0.rob.rob_writes                  227733186                       # The number of ROB writes
system.cpu0.timesIdled                          50280                       # Number of times that the entire CPU went into an idle state and unscheduled itself
system.cpu0.idleCycles                         843960                       # Total number of cycles that the CPU has spent unscheduled due to idling
system.cpu0.committedInsts                   89081578                       # Number of Instructions Simulated
system.cpu0.committedOps                    100650687                       # Number of Ops (including micro ops) Simulated
system.cpu0.cpi                              0.973722                       # CPI: Cycles Per Instruction
system.cpu0.cpi_total                        0.973722                       # CPI: Total CPI of All Threads
system.cpu0.ipc                              1.026987                       # IPC: Instructions Per Cycle
system.cpu0.ipc_total                        1.026987                       # IPC: Total IPC of All Threads
system.cpu0.int_regfile_reads               120290289                       # number of integer regfile reads
system.cpu0.int_regfile_writes               70988086                       # number of integer regfile writes
system.cpu0.fp_regfile_reads                     1136                       # number of floating regfile reads
system.cpu0.cc_regfile_reads                352368621                       # number of cc regfile reads
system.cpu0.cc_regfile_writes                53393391                       # number of cc regfile writes
system.cpu0.misc_regfile_reads               22816500                       # number of misc regfile reads
system.cpu0.misc_regfile_writes                 12705                       # number of misc regfile writes
system.cpu0.dcache.tags.pwrStateResidencyTicks::UNDEFINED  86740712000                       # Cumulative time (in ticks) in various power states
system.cpu0.dcache.tags.replacements             8524                       # number of replacements
system.cpu0.dcache.tags.tagsinuse          239.303979                       # Cycle average of tags in use
system.cpu0.dcache.tags.total_refs           20144322                       # Total number of references to valid blocks.
system.cpu0.dcache.tags.sampled_refs             8779                       # Sample count of references to valid blocks.
system.cpu0.dcache.tags.avg_refs          2294.603258                       # Average number of references to valid blocks.
system.cpu0.dcache.tags.warmup_cycle       1769000000                       # Cycle when the warmup percentage was hit.
system.cpu0.dcache.tags.occ_blocks::cpu0.data   239.303979                       # Average occupied blocks per requestor
system.cpu0.dcache.tags.occ_percent::cpu0.data     0.934781                       # Average percentage of cache occupancy
system.cpu0.dcache.tags.occ_percent::total     0.934781                       # Average percentage of cache occupancy
system.cpu0.dcache.tags.occ_task_id_blocks::1024          255                       # Occupied blocks per task id
system.cpu0.dcache.tags.age_task_id_blocks_1024::0           26                       # Occupied blocks per task id
system.cpu0.dcache.tags.age_task_id_blocks_1024::1           55                       # Occupied blocks per task id
system.cpu0.dcache.tags.age_task_id_blocks_1024::2           85                       # Occupied blocks per task id
system.cpu0.dcache.tags.age_task_id_blocks_1024::3           63                       # Occupied blocks per task id
system.cpu0.dcache.tags.age_task_id_blocks_1024::4           26                       # Occupied blocks per task id
system.cpu0.dcache.tags.occ_task_id_percent::1024     0.996094                       # Percentage of cache occupancy per task id
system.cpu0.dcache.tags.tag_accesses        161306006                       # Number of tag accesses
system.cpu0.dcache.tags.data_accesses       161306006                       # Number of data accesses
system.cpu0.dcache.pwrStateResidencyTicks::UNDEFINED  86740712000                       # Cumulative time (in ticks) in various power states
system.cpu0.dcache.ReadReq_hits::cpu0.data     11640460                       # number of ReadReq hits
system.cpu0.dcache.ReadReq_hits::total       11640460                       # number of ReadReq hits
system.cpu0.dcache.WriteReq_hits::cpu0.data      8492182                       # number of WriteReq hits
system.cpu0.dcache.WriteReq_hits::total       8492182                       # number of WriteReq hits
system.cpu0.dcache.LoadLockedReq_hits::cpu0.data         5623                       # number of LoadLockedReq hits
system.cpu0.dcache.LoadLockedReq_hits::total         5623                       # number of LoadLockedReq hits
system.cpu0.dcache.StoreCondReq_hits::cpu0.data         4901                       # number of StoreCondReq hits
system.cpu0.dcache.StoreCondReq_hits::total         4901                       # number of StoreCondReq hits
system.cpu0.dcache.demand_hits::cpu0.data     20132642                       # number of demand (read+write) hits
system.cpu0.dcache.demand_hits::total        20132642                       # number of demand (read+write) hits
system.cpu0.dcache.overall_hits::cpu0.data     20132642                       # number of overall hits
system.cpu0.dcache.overall_hits::total       20132642                       # number of overall hits
system.cpu0.dcache.ReadReq_misses::cpu0.data         7329                       # number of ReadReq misses
system.cpu0.dcache.ReadReq_misses::total         7329                       # number of ReadReq misses
system.cpu0.dcache.WriteReq_misses::cpu0.data        10234                       # number of WriteReq misses
system.cpu0.dcache.WriteReq_misses::total        10234                       # number of WriteReq misses
system.cpu0.dcache.LoadLockedReq_misses::cpu0.data          416                       # number of LoadLockedReq misses
system.cpu0.dcache.LoadLockedReq_misses::total          416                       # number of LoadLockedReq misses
system.cpu0.dcache.StoreCondReq_misses::cpu0.data          833                       # number of StoreCondReq misses
system.cpu0.dcache.StoreCondReq_misses::total          833                       # number of StoreCondReq misses
system.cpu0.dcache.demand_misses::cpu0.data        17563                       # number of demand (read+write) misses
system.cpu0.dcache.demand_misses::total         17563                       # number of demand (read+write) misses
system.cpu0.dcache.overall_misses::cpu0.data        17563                       # number of overall misses
system.cpu0.dcache.overall_misses::total        17563                       # number of overall misses
system.cpu0.dcache.ReadReq_miss_latency::cpu0.data    226918000                       # number of ReadReq miss cycles
system.cpu0.dcache.ReadReq_miss_latency::total    226918000                       # number of ReadReq miss cycles
system.cpu0.dcache.WriteReq_miss_latency::cpu0.data    406620885                       # number of WriteReq miss cycles
system.cpu0.dcache.WriteReq_miss_latency::total    406620885                       # number of WriteReq miss cycles
system.cpu0.dcache.LoadLockedReq_miss_latency::cpu0.data      7902000                       # number of LoadLockedReq miss cycles
system.cpu0.dcache.LoadLockedReq_miss_latency::total      7902000                       # number of LoadLockedReq miss cycles
system.cpu0.dcache.StoreCondReq_miss_latency::cpu0.data     12288000                       # number of StoreCondReq miss cycles
system.cpu0.dcache.StoreCondReq_miss_latency::total     12288000                       # number of StoreCondReq miss cycles
system.cpu0.dcache.StoreCondFailReq_miss_latency::cpu0.data      1550000                       # number of StoreCondFailReq miss cycles
system.cpu0.dcache.StoreCondFailReq_miss_latency::total      1550000                       # number of StoreCondFailReq miss cycles
system.cpu0.dcache.demand_miss_latency::cpu0.data    633538885                       # number of demand (read+write) miss cycles
system.cpu0.dcache.demand_miss_latency::total    633538885                       # number of demand (read+write) miss cycles
system.cpu0.dcache.overall_miss_latency::cpu0.data    633538885                       # number of overall miss cycles
system.cpu0.dcache.overall_miss_latency::total    633538885                       # number of overall miss cycles
system.cpu0.dcache.ReadReq_accesses::cpu0.data     11647789                       # number of ReadReq accesses(hits+misses)
system.cpu0.dcache.ReadReq_accesses::total     11647789                       # number of ReadReq accesses(hits+misses)
system.cpu0.dcache.WriteReq_accesses::cpu0.data      8502416                       # number of WriteReq accesses(hits+misses)
system.cpu0.dcache.WriteReq_accesses::total      8502416                       # number of WriteReq accesses(hits+misses)
system.cpu0.dcache.LoadLockedReq_accesses::cpu0.data         6039                       # number of LoadLockedReq accesses(hits+misses)
system.cpu0.dcache.LoadLockedReq_accesses::total         6039                       # number of LoadLockedReq accesses(hits+misses)
system.cpu0.dcache.StoreCondReq_accesses::cpu0.data         5734                       # number of StoreCondReq accesses(hits+misses)
system.cpu0.dcache.StoreCondReq_accesses::total         5734                       # number of StoreCondReq accesses(hits+misses)
system.cpu0.dcache.demand_accesses::cpu0.data     20150205                       # number of demand (read+write) accesses
system.cpu0.dcache.demand_accesses::total     20150205                       # number of demand (read+write) accesses
system.cpu0.dcache.overall_accesses::cpu0.data     20150205                       # number of overall (read+write) accesses
system.cpu0.dcache.overall_accesses::total     20150205                       # number of overall (read+write) accesses
system.cpu0.dcache.ReadReq_miss_rate::cpu0.data     0.000629                       # miss rate for ReadReq accesses
system.cpu0.dcache.ReadReq_miss_rate::total     0.000629                       # miss rate for ReadReq accesses
system.cpu0.dcache.WriteReq_miss_rate::cpu0.data     0.001204                       # miss rate for WriteReq accesses
system.cpu0.dcache.WriteReq_miss_rate::total     0.001204                       # miss rate for WriteReq accesses
system.cpu0.dcache.LoadLockedReq_miss_rate::cpu0.data     0.068886                       # miss rate for LoadLockedReq accesses
system.cpu0.dcache.LoadLockedReq_miss_rate::total     0.068886                       # miss rate for LoadLockedReq accesses
system.cpu0.dcache.StoreCondReq_miss_rate::cpu0.data     0.145274                       # miss rate for StoreCondReq accesses
system.cpu0.dcache.StoreCondReq_miss_rate::total     0.145274                       # miss rate for StoreCondReq accesses
system.cpu0.dcache.demand_miss_rate::cpu0.data     0.000872                       # miss rate for demand accesses
system.cpu0.dcache.demand_miss_rate::total     0.000872                       # miss rate for demand accesses
system.cpu0.dcache.overall_miss_rate::cpu0.data     0.000872                       # miss rate for overall accesses
system.cpu0.dcache.overall_miss_rate::total     0.000872                       # miss rate for overall accesses
system.cpu0.dcache.ReadReq_avg_miss_latency::cpu0.data 30961.659162                       # average ReadReq miss latency
system.cpu0.dcache.ReadReq_avg_miss_latency::total 30961.659162                       # average ReadReq miss latency
system.cpu0.dcache.WriteReq_avg_miss_latency::cpu0.data 39732.351475                       # average WriteReq miss latency
system.cpu0.dcache.WriteReq_avg_miss_latency::total 39732.351475                       # average WriteReq miss latency
system.cpu0.dcache.LoadLockedReq_avg_miss_latency::cpu0.data 18995.192308                       # average LoadLockedReq miss latency
system.cpu0.dcache.LoadLockedReq_avg_miss_latency::total 18995.192308                       # average LoadLockedReq miss latency
system.cpu0.dcache.StoreCondReq_avg_miss_latency::cpu0.data 14751.500600                       # average StoreCondReq miss latency
system.cpu0.dcache.StoreCondReq_avg_miss_latency::total 14751.500600                       # average StoreCondReq miss latency
system.cpu0.dcache.StoreCondFailReq_avg_miss_latency::cpu0.data          inf                       # average StoreCondFailReq miss latency
system.cpu0.dcache.StoreCondFailReq_avg_miss_latency::total          inf                       # average StoreCondFailReq miss latency
system.cpu0.dcache.demand_avg_miss_latency::cpu0.data 36072.361499                       # average overall miss latency
system.cpu0.dcache.demand_avg_miss_latency::total 36072.361499                       # average overall miss latency
system.cpu0.dcache.overall_avg_miss_latency::cpu0.data 36072.361499                       # average overall miss latency
system.cpu0.dcache.overall_avg_miss_latency::total 36072.361499                       # average overall miss latency
system.cpu0.dcache.blocked_cycles::no_mshrs         2026                       # number of cycles access was blocked
system.cpu0.dcache.blocked_cycles::no_targets            0                       # number of cycles access was blocked
system.cpu0.dcache.blocked::no_mshrs              210                       # number of cycles access was blocked
system.cpu0.dcache.blocked::no_targets              0                       # number of cycles access was blocked
system.cpu0.dcache.avg_blocked_cycles::no_mshrs     9.647619                       # average number of cycles each access was blocked
system.cpu0.dcache.avg_blocked_cycles::no_targets          nan                       # average number of cycles each access was blocked
system.cpu0.dcache.writebacks::writebacks         6998                       # number of writebacks
system.cpu0.dcache.writebacks::total             6998                       # number of writebacks
system.cpu0.dcache.ReadReq_mshr_hits::cpu0.data         4518                       # number of ReadReq MSHR hits
system.cpu0.dcache.ReadReq_mshr_hits::total         4518                       # number of ReadReq MSHR hits
system.cpu0.dcache.WriteReq_mshr_hits::cpu0.data         3003                       # number of WriteReq MSHR hits
system.cpu0.dcache.WriteReq_mshr_hits::total         3003                       # number of WriteReq MSHR hits
system.cpu0.dcache.LoadLockedReq_mshr_hits::cpu0.data          172                       # number of LoadLockedReq MSHR hits
system.cpu0.dcache.LoadLockedReq_mshr_hits::total          172                       # number of LoadLockedReq MSHR hits
system.cpu0.dcache.demand_mshr_hits::cpu0.data         7521                       # number of demand (read+write) MSHR hits
system.cpu0.dcache.demand_mshr_hits::total         7521                       # number of demand (read+write) MSHR hits
system.cpu0.dcache.overall_mshr_hits::cpu0.data         7521                       # number of overall MSHR hits
system.cpu0.dcache.overall_mshr_hits::total         7521                       # number of overall MSHR hits
system.cpu0.dcache.ReadReq_mshr_misses::cpu0.data         2811                       # number of ReadReq MSHR misses
system.cpu0.dcache.ReadReq_mshr_misses::total         2811                       # number of ReadReq MSHR misses
system.cpu0.dcache.WriteReq_mshr_misses::cpu0.data         7231                       # number of WriteReq MSHR misses
system.cpu0.dcache.WriteReq_mshr_misses::total         7231                       # number of WriteReq MSHR misses
system.cpu0.dcache.LoadLockedReq_mshr_misses::cpu0.data          244                       # number of LoadLockedReq MSHR misses
system.cpu0.dcache.LoadLockedReq_mshr_misses::total          244                       # number of LoadLockedReq MSHR misses
system.cpu0.dcache.StoreCondReq_mshr_misses::cpu0.data          833                       # number of StoreCondReq MSHR misses
system.cpu0.dcache.StoreCondReq_mshr_misses::total          833                       # number of StoreCondReq MSHR misses
system.cpu0.dcache.demand_mshr_misses::cpu0.data        10042                       # number of demand (read+write) MSHR misses
system.cpu0.dcache.demand_mshr_misses::total        10042                       # number of demand (read+write) MSHR misses
system.cpu0.dcache.overall_mshr_misses::cpu0.data        10042                       # number of overall MSHR misses
system.cpu0.dcache.overall_mshr_misses::total        10042                       # number of overall MSHR misses
system.cpu0.dcache.ReadReq_mshr_miss_latency::cpu0.data     96432001                       # number of ReadReq MSHR miss cycles
system.cpu0.dcache.ReadReq_mshr_miss_latency::total     96432001                       # number of ReadReq MSHR miss cycles
system.cpu0.dcache.WriteReq_mshr_miss_latency::cpu0.data    292900929                       # number of WriteReq MSHR miss cycles
system.cpu0.dcache.WriteReq_mshr_miss_latency::total    292900929                       # number of WriteReq MSHR miss cycles
system.cpu0.dcache.LoadLockedReq_mshr_miss_latency::cpu0.data      4786000                       # number of LoadLockedReq MSHR miss cycles
system.cpu0.dcache.LoadLockedReq_mshr_miss_latency::total      4786000                       # number of LoadLockedReq MSHR miss cycles
system.cpu0.dcache.StoreCondReq_mshr_miss_latency::cpu0.data     10715996                       # number of StoreCondReq MSHR miss cycles
system.cpu0.dcache.StoreCondReq_mshr_miss_latency::total     10715996                       # number of StoreCondReq MSHR miss cycles
system.cpu0.dcache.StoreCondFailReq_mshr_miss_latency::cpu0.data      1456000                       # number of StoreCondFailReq MSHR miss cycles
system.cpu0.dcache.StoreCondFailReq_mshr_miss_latency::total      1456000                       # number of StoreCondFailReq MSHR miss cycles
system.cpu0.dcache.demand_mshr_miss_latency::cpu0.data    389332930                       # number of demand (read+write) MSHR miss cycles
system.cpu0.dcache.demand_mshr_miss_latency::total    389332930                       # number of demand (read+write) MSHR miss cycles
system.cpu0.dcache.overall_mshr_miss_latency::cpu0.data    389332930                       # number of overall MSHR miss cycles
[...]
system.cpu7.icache.ReadReq_avg_miss_latency::cpu7.inst 42398.019486                       # average ReadReq miss latency
system.cpu7.icache.ReadReq_avg_miss_latency::total 42398.019486                       # average ReadReq miss latency
system.cpu7.icache.demand_avg_miss_latency::cpu7.inst 42398.019486                       # average overall miss latency
system.cpu7.icache.demand_avg_miss_latency::total 42398.019486                       # average overall miss latency
system.cpu7.icache.overall_avg_miss_latency::cpu7.inst 42398.019486                       # average overall miss latency
system.cpu7.icache.overall_avg_miss_latency::total 42398.019486                       # average overall miss latency
system.cpu7.icache.blocked_cycles::no_mshrs            0                       # number of cycles access was blocked
system.cpu7.icache.blocked_cycles::no_targets            0                       # number of cycles access was blocked
system.cpu7.icache.blocked::no_mshrs                0                       # number of cycles access was blocked
system.cpu7.icache.blocked::no_targets              0                       # number of cycles access was blocked
system.cpu7.icache.avg_blocked_cycles::no_mshrs          nan                       # average number of cycles each access was blocked
system.cpu7.icache.avg_blocked_cycles::no_targets          nan                       # average number of cycles each access was blocked
system.cpu7.icache.writebacks::writebacks        36010                       # number of writebacks
system.cpu7.icache.writebacks::total            36010                       # number of writebacks
system.cpu7.icache.ReadReq_mshr_hits::cpu7.inst         7561                       # number of ReadReq MSHR hits
system.cpu7.icache.ReadReq_mshr_hits::total         7561                       # number of ReadReq MSHR hits
system.cpu7.icache.demand_mshr_hits::cpu7.inst         7561                       # number of demand (read+write) MSHR hits
system.cpu7.icache.demand_mshr_hits::total         7561                       # number of demand (read+write) MSHR hits
system.cpu7.icache.overall_mshr_hits::cpu7.inst         7561                       # number of overall MSHR hits
system.cpu7.icache.overall_mshr_hits::total         7561                       # number of overall MSHR hits
system.cpu7.icache.ReadReq_mshr_misses::cpu7.inst        36266                       # number of ReadReq MSHR misses
system.cpu7.icache.ReadReq_mshr_misses::total        36266                       # number of ReadReq MSHR misses
system.cpu7.icache.demand_mshr_misses::cpu7.inst        36266                       # number of demand (read+write) MSHR misses
system.cpu7.icache.demand_mshr_misses::total        36266                       # number of demand (read+write) MSHR misses
system.cpu7.icache.overall_mshr_misses::cpu7.inst        36266                       # number of overall MSHR misses
system.cpu7.icache.overall_mshr_misses::total        36266                       # number of overall MSHR misses
system.cpu7.icache.ReadReq_mshr_miss_latency::cpu7.inst   1599903000                       # number of ReadReq MSHR miss cycles
system.cpu7.icache.ReadReq_mshr_miss_latency::total   1599903000                       # number of ReadReq MSHR miss cycles
system.cpu7.icache.demand_mshr_miss_latency::cpu7.inst   1599903000                       # number of demand (read+write) MSHR miss cycles
system.cpu7.icache.demand_mshr_miss_latency::total   1599903000                       # number of demand (read+write) MSHR miss cycles
system.cpu7.icache.overall_mshr_miss_latency::cpu7.inst   1599903000                       # number of overall MSHR miss cycles
system.cpu7.icache.overall_mshr_miss_latency::total   1599903000                       # number of overall MSHR miss cycles
system.cpu7.icache.ReadReq_mshr_miss_rate::cpu7.inst     0.003780                       # mshr miss rate for ReadReq accesses
system.cpu7.icache.ReadReq_mshr_miss_rate::total     0.003780                       # mshr miss rate for ReadReq accesses
system.cpu7.icache.demand_mshr_miss_rate::cpu7.inst     0.003780                       # mshr miss rate for demand accesses
system.cpu7.icache.demand_mshr_miss_rate::total     0.003780                       # mshr miss rate for demand accesses
system.cpu7.icache.overall_mshr_miss_rate::cpu7.inst     0.003780                       # mshr miss rate for overall accesses
system.cpu7.icache.overall_mshr_miss_rate::total     0.003780                       # mshr miss rate for overall accesses
system.cpu7.icache.ReadReq_avg_mshr_miss_latency::cpu7.inst 44115.783378                       # average ReadReq mshr miss latency
system.cpu7.icache.ReadReq_avg_mshr_miss_latency::total 44115.783378                       # average ReadReq mshr miss latency
system.cpu7.icache.demand_avg_mshr_miss_latency::cpu7.inst 44115.783378                       # average overall mshr miss latency
system.cpu7.icache.demand_avg_mshr_miss_latency::total 44115.783378                       # average overall mshr miss latency
system.cpu7.icache.overall_avg_mshr_miss_latency::cpu7.inst 44115.783378                       # average overall mshr miss latency
system.cpu7.icache.overall_avg_mshr_miss_latency::total 44115.783378                       # average overall mshr miss latency
system.cpu_voltage_domain.voltage                   1                       # Voltage in Volts
system.cpu_clk_domain.clock                       500                       # Clock period in ticks
system.membus.snoop_filter.tot_requests       1022367                       # Total number of requests made to the snoop filter.
system.membus.snoop_filter.hit_single_requests       158301                       # Number of requests hitting in the snoop filter with a single holder of the requested data.
system.membus.snoop_filter.hit_multi_requests       786235                       # Number of requests hitting in the snoop filter with multiple (>1) holders of the requested data.
system.membus.snoop_filter.tot_snoops               0                       # Total number of snoops made to the snoop filter.
system.membus.snoop_filter.hit_single_snoops            0                       # Number of snoops hitting in the snoop filter with a single holder of the requested data.
system.membus.snoop_filter.hit_multi_snoops            0                       # Number of snoops hitting in the snoop filter with multiple (>1) holders of the requested data.
system.membus.pwrStateResidencyTicks::UNDEFINED  86740712000                       # Cumulative time (in ticks) in various power states
system.membus.trans_dist::ReadResp             486678                       # Transaction distribution
system.membus.trans_dist::ReadRespWithInvalidate           35                       # Transaction distribution
system.membus.trans_dist::WritebackDirty        11556                       # Transaction distribution
system.membus.trans_dist::WritebackClean       454960                       # Transaction distribution
system.membus.trans_dist::CleanEvict             6614                       # Transaction distribution
system.membus.trans_dist::UpgradeReq             5692                       # Transaction distribution
system.membus.trans_dist::SCUpgradeReq           8393                       # Transaction distribution
system.membus.trans_dist::UpgradeResp           11438                       # Transaction distribution
system.membus.trans_dist::SCUpgradeFailReq          528                       # Transaction distribution
system.membus.trans_dist::UpgradeFailResp          528                       # Transaction distribution
system.membus.trans_dist::ReadExReq             20725                       # Transaction distribution
system.membus.trans_dist::ReadExResp            20725                       # Transaction distribution
system.membus.trans_dist::ReadCleanReq         457032                       # Transaction distribution
system.membus.trans_dist::ReadSharedReq         29681                       # Transaction distribution
system.membus.pkt_count_system.cpu0.icache.mem_side::system.physmem.port       241740                       # Packet count per connected master and slave (bytes)
system.membus.pkt_count_system.cpu0.dcache.mem_side::system.physmem.port        28305                       # Packet count per connected master and slave (bytes)
system.membus.pkt_count_system.cpu1.icache.mem_side::system.physmem.port       168119                       # Packet count per connected master and slave (bytes)
system.membus.pkt_count_system.cpu1.dcache.mem_side::system.physmem.port         7270                       # Packet count per connected master and slave (bytes)
system.membus.pkt_count_system.cpu2.icache.mem_side::system.physmem.port       172280                       # Packet count per connected master and slave (bytes)
system.membus.pkt_count_system.cpu2.dcache.mem_side::system.physmem.port        13188                       # Packet count per connected master and slave (bytes)
system.membus.pkt_count_system.cpu3.icache.mem_side::system.physmem.port       172475                       # Packet count per connected master and slave (bytes)
system.membus.pkt_count_system.cpu3.dcache.mem_side::system.physmem.port        13356                       # Packet count per connected master and slave (bytes)
system.membus.pkt_count_system.cpu4.icache.mem_side::system.physmem.port       167067                       # Packet count per connected master and slave (bytes)
system.membus.pkt_count_system.cpu4.dcache.mem_side::system.physmem.port         7591                       # Packet count per connected master and slave (bytes)
system.membus.pkt_count_system.cpu5.icache.mem_side::system.physmem.port       169471                       # Packet count per connected master and slave (bytes)
system.membus.pkt_count_system.cpu5.dcache.mem_side::system.physmem.port        12781                       # Packet count per connected master and slave (bytes)
system.membus.pkt_count_system.cpu6.icache.mem_side::system.physmem.port       169292                       # Packet count per connected master and slave (bytes)
system.membus.pkt_count_system.cpu6.dcache.mem_side::system.physmem.port        13252                       # Packet count per connected master and slave (bytes)
system.membus.pkt_count_system.cpu7.icache.mem_side::system.physmem.port       108542                       # Packet count per connected master and slave (bytes)
system.membus.pkt_count_system.cpu7.dcache.mem_side::system.physmem.port         7239                       # Packet count per connected master and slave (bytes)
system.membus.pkt_count::total                1471968                       # Packet count per connected master and slave (bytes)
system.membus.pkt_size_system.cpu0.icache.mem_side::system.physmem.port     10308736                       # Cumulative packet size per connected master and slave (bytes)
system.membus.pkt_size_system.cpu0.dcache.mem_side::system.physmem.port      1000448                       # Cumulative packet size per connected master and slave (bytes)
system.membus.pkt_size_system.cpu1.icache.mem_side::system.physmem.port      7167552                       # Cumulative packet size per connected master and slave (bytes)
system.membus.pkt_size_system.cpu1.dcache.mem_side::system.physmem.port       145472                       # Cumulative packet size per connected master and slave (bytes)
system.membus.pkt_size_system.cpu2.icache.mem_side::system.physmem.port      7345152                       # Cumulative packet size per connected master and slave (bytes)
system.membus.pkt_size_system.cpu2.dcache.mem_side::system.physmem.port       152000                       # Cumulative packet size per connected master and slave (bytes)
system.membus.pkt_size_system.cpu3.icache.mem_side::system.physmem.port      7353088                       # Cumulative packet size per connected master and slave (bytes)
system.membus.pkt_size_system.cpu3.dcache.mem_side::system.physmem.port       157120                       # Cumulative packet size per connected master and slave (bytes)
system.membus.pkt_size_system.cpu4.icache.mem_side::system.physmem.port      7122688                       # Cumulative packet size per connected master and slave (bytes)
system.membus.pkt_size_system.cpu4.dcache.mem_side::system.physmem.port       143680                       # Cumulative packet size per connected master and slave (bytes)
system.membus.pkt_size_system.cpu5.icache.mem_side::system.physmem.port      7225088                       # Cumulative packet size per connected master and slave (bytes)
system.membus.pkt_size_system.cpu5.dcache.mem_side::system.physmem.port       161600                       # Cumulative packet size per connected master and slave (bytes)
system.membus.pkt_size_system.cpu6.icache.mem_side::system.physmem.port      7217088                       # Cumulative packet size per connected master and slave (bytes)
system.membus.pkt_size_system.cpu6.dcache.mem_side::system.physmem.port       152448                       # Cumulative packet size per connected master and slave (bytes)
system.membus.pkt_size_system.cpu7.icache.mem_side::system.physmem.port      4625664                       # Cumulative packet size per connected master and slave (bytes)
system.membus.pkt_size_system.cpu7.dcache.mem_side::system.physmem.port        93568                       # Cumulative packet size per connected master and slave (bytes)
system.membus.pkt_size::total                60371392                       # Cumulative packet size per connected master and slave (bytes)
system.membus.snoops                            42617                       # Total snoops (count)
system.membus.snoopTraffic                    1995456                       # Total snoop traffic (bytes)
system.membus.snoop_fanout::samples            546415                       # Request fanout histogram
system.membus.snoop_fanout::mean             2.712233                       # Request fanout histogram
system.membus.snoop_fanout::stdev            2.183418                       # Request fanout histogram
system.membus.snoop_fanout::underflows              0      0.00%      0.00% # Request fanout histogram
system.membus.snoop_fanout::0                   77863     14.25%     14.25% # Request fanout histogram
system.membus.snoop_fanout::1                   95822     17.54%     31.79% # Request fanout histogram
system.membus.snoop_fanout::2                  101627     18.60%     50.39% # Request fanout histogram
system.membus.snoop_fanout::3                  136276     24.94%     75.33% # Request fanout histogram
system.membus.snoop_fanout::4                   33711      6.17%     81.49% # Request fanout histogram
system.membus.snoop_fanout::5                   34378      6.29%     87.79% # Request fanout histogram
system.membus.snoop_fanout::6                   34810      6.37%     94.16% # Request fanout histogram
system.membus.snoop_fanout::7                   23398      4.28%     98.44% # Request fanout histogram
system.membus.snoop_fanout::8                    1433      0.26%     98.70% # Request fanout histogram
system.membus.snoop_fanout::9                    1255      0.23%     98.93% # Request fanout histogram
system.membus.snoop_fanout::10                   1112      0.20%     99.13% # Request fanout histogram
system.membus.snoop_fanout::11                   1205      0.22%     99.35% # Request fanout histogram
system.membus.snoop_fanout::12                    868      0.16%     99.51% # Request fanout histogram
system.membus.snoop_fanout::13                    908      0.17%     99.68% # Request fanout histogram
system.membus.snoop_fanout::14                    868      0.16%     99.84% # Request fanout histogram
system.membus.snoop_fanout::15                    881      0.16%    100.00% # Request fanout histogram
system.membus.snoop_fanout::16                      0      0.00%    100.00% # Request fanout histogram
system.membus.snoop_fanout::overflows               0      0.00%    100.00% # Request fanout histogram
system.membus.snoop_fanout::min_value               0                       # Request fanout histogram
system.membus.snoop_fanout::max_value              15                       # Request fanout histogram
system.membus.snoop_fanout::total              546415                       # Request fanout histogram
system.membus.reqLayer0.occupancy          2897352339                       # Layer occupancy (ticks)
system.membus.reqLayer0.utilization               3.3                       # Layer utilization (%)
system.membus.respLayer1.occupancy          403330000                       # Layer occupancy (ticks)
system.membus.respLayer1.utilization              0.5                       # Layer utilization (%)
system.membus.respLayer2.occupancy           51708846                       # Layer occupancy (ticks)
system.membus.respLayer2.utilization              0.1                       # Layer utilization (%)
system.membus.respLayer5.occupancy          280630000                       # Layer occupancy (ticks)
system.membus.respLayer5.utilization              0.3                       # Layer utilization (%)
system.membus.respLayer6.occupancy           17467515                       # Layer occupancy (ticks)
system.membus.respLayer6.utilization              0.0                       # Layer utilization (%)
system.membus.respLayer9.occupancy          287560000                       # Layer occupancy (ticks)
system.membus.respLayer9.utilization              0.3                       # Layer utilization (%)
system.membus.respLayer10.occupancy          38830175                       # Layer occupancy (ticks)
system.membus.respLayer10.utilization             0.0                       # Layer utilization (%)
system.membus.respLayer13.occupancy         287915000                       # Layer occupancy (ticks)
system.membus.respLayer13.utilization             0.3                       # Layer utilization (%)
system.membus.respLayer14.occupancy          38955543                       # Layer occupancy (ticks)
system.membus.respLayer14.utilization             0.0                       # Layer utilization (%)
system.membus.respLayer17.occupancy         278875000                       # Layer occupancy (ticks)
system.membus.respLayer17.utilization             0.3                       # Layer utilization (%)
system.membus.respLayer18.occupancy          19355469                       # Layer occupancy (ticks)
system.membus.respLayer18.utilization             0.0                       # Layer utilization (%)
system.membus.respLayer21.occupancy         282895000                       # Layer occupancy (ticks)
system.membus.respLayer21.utilization             0.3                       # Layer utilization (%)
system.membus.respLayer22.occupancy          37172190                       # Layer occupancy (ticks)
system.membus.respLayer22.utilization             0.0                       # Layer utilization (%)
system.membus.respLayer25.occupancy         282627997                       # Layer occupancy (ticks)
system.membus.respLayer25.utilization             0.3                       # Layer utilization (%)
system.membus.respLayer26.occupancy          39626416                       # Layer occupancy (ticks)
system.membus.respLayer26.utilization             0.0                       # Layer utilization (%)
system.membus.respLayer29.occupancy         181330000                       # Layer occupancy (ticks)
system.membus.respLayer29.utilization             0.2                       # Layer utilization (%)
system.membus.respLayer30.occupancy          23964435                       # Layer occupancy (ticks)
system.membus.respLayer30.utilization             0.0                       # Layer utilization (%)

---------- End Simulation Statistics   ----------
