
---------- Begin Simulation Statistics ----------
sim_seconds                                  0.550038                       # Number of seconds simulated
sim_ticks                                550038142000                       # Number of ticks simulated
final_tick                               550038142000                       # Number of ticks from beginning of simulation (restored from checkpoints and never reset)
sim_freq                                 1000000000000                       # Frequency of simulated ticks
host_inst_rate                                 212530                       # Simulator instruction rate (inst/s)
host_op_rate                                   240277                       # Simulator op (including micro ops) rate (op/s)
host_tick_rate                              205567975                       # Simulator tick rate (ticks/s)
host_mem_usage                                 719756                       # Number of bytes of host memory used
host_seconds                                  2675.70                       # Real time elapsed on the host
sim_insts                                   568667623                       # Number of instructions simulated
sim_ops                                     642909341                       # Number of ops (including micro ops) simulated
system.voltage_domain.voltage                       1                       # Voltage in Volts
system.clk_domain.clock                          1000                       # Clock period in ticks
system.physmem.pwrStateResidencyTicks::UNDEFINED 550038142000                       # Cumulative time (in ticks) in various power states
system.physmem.bytes_read::cpu0.inst           117376                       # Number of bytes read from this memory
system.physmem.bytes_read::cpu0.data           283968                       # Number of bytes read from this memory
system.physmem.bytes_read::total               401344                       # Number of bytes read from this memory
system.physmem.bytes_inst_read::cpu0.inst       117376                       # Number of instructions bytes read from this memory
system.physmem.bytes_inst_read::total          117376                       # Number of instructions bytes read from this memory
system.physmem.bytes_written::writebacks        78784                       # Number of bytes written to this memory
system.physmem.bytes_written::total             78784                       # Number of bytes written to this memory
system.physmem.num_reads::cpu0.inst              1834                       # Number of read requests responded to by this memory
system.physmem.num_reads::cpu0.data              4437                       # Number of read requests responded to by this memory
system.physmem.num_reads::total                  6271                       # Number of read requests responded to by this memory
system.physmem.num_writes::writebacks            1231                       # Number of write requests responded to by this memory
system.physmem.num_writes::total                 1231                       # Number of write requests responded to by this memory
system.physmem.bw_read::cpu0.inst              213396                       # Total read bandwidth from this memory (bytes/s)
system.physmem.bw_read::cpu0.data              516270                       # Total read bandwidth from this memory (bytes/s)
system.physmem.bw_read::total                  729666                       # Total read bandwidth from this memory (bytes/s)
system.physmem.bw_inst_read::cpu0.inst         213396                       # Instruction read bandwidth from this memory (bytes/s)
system.physmem.bw_inst_read::total             213396                       # Instruction read bandwidth from this memory (bytes/s)
system.physmem.bw_write::writebacks            143234                       # Write bandwidth from this memory (bytes/s)
system.physmem.bw_write::total                 143234                       # Write bandwidth from this memory (bytes/s)
system.physmem.bw_total::writebacks            143234                       # Total bandwidth to/from this memory (bytes/s)
system.physmem.bw_total::cpu0.inst             213396                       # Total bandwidth to/from this memory (bytes/s)
system.physmem.bw_total::cpu0.data             516270                       # Total bandwidth to/from this memory (bytes/s)
system.physmem.bw_total::total                 872899                       # Total bandwidth to/from this memory (bytes/s)
system.pwrStateResidencyTicks::UNDEFINED 550038142000                       # Cumulative time (in ticks) in various power states
system.cpu0.branchPred.lookups              115854201                       # Number of BP lookups
system.cpu0.branchPred.condPredicted         66720623                       # Number of conditional branches predicted
system.cpu0.branchPred.condIncorrect          2790687                       # Number of conditional branches incorrect
system.cpu0.branchPred.BTBLookups            64396231                       # Number of BTB lookups
system.cpu0.branchPred.BTBHits               54837167                       # Number of BTB hits
system.cpu0.branchPred.BTBCorrect                   0                       # Number of correct BTB predictions (this stat may not work properly.
system.cpu0.branchPred.BTBHitPct            85.155864                       # BTB Hit Percentage
system.cpu0.branchPred.usedRAS               15951386                       # Number of times the RAS was used to get a target.
system.cpu0.branchPred.RASInCorrect            299975                       # Number of incorrect RAS predictions.
system.cpu0.branchPred.indirectLookups        3617630                       # Number of indirect predictor lookups.
system.cpu0.branchPred.indirectHits           3588384                       # Number of indirect target hits.
system.cpu0.branchPred.indirectMisses           29246                       # Number of indirect misses.
system.cpu0.branchPredindirectMispredicted        25996                       # Number of mispredicted indirect branches.
system.cpu0.dstage2_mmu.stage2_tlb.walker.pwrStateResidencyTicks::UNDEFINED 550038142000                       # Cumulative time (in ticks) in various power states
system.cpu0.dstage2_mmu.stage2_tlb.walker.walks            0                       # Table walker walks requested
system.cpu0.dstage2_mmu.stage2_tlb.walker.walkRequestOrigin_Requested::Data            0                       # Table walker requests started/completed, data/inst
system.cpu0.dstage2_mmu.stage2_tlb.walker.walkRequestOrigin_Requested::Inst            0                       # Table walker requests started/completed, data/inst
system.cpu0.dstage2_mmu.stage2_tlb.walker.walkRequestOrigin_Requested::total            0                       # Table walker requests started/completed, data/inst
system.cpu0.dstage2_mmu.stage2_tlb.walker.walkRequestOrigin_Completed::Data            0                       # Table walker requests started/completed, data/inst
system.cpu0.dstage2_mmu.stage2_tlb.walker.walkRequestOrigin_Completed::Inst            0                       # Table walker requests started/completed, data/inst
system.cpu0.dstage2_mmu.stage2_tlb.walker.walkRequestOrigin_Completed::total            0                       # Table walker requests started/completed, data/inst
system.cpu0.dstage2_mmu.stage2_tlb.walker.walkRequestOrigin::total            0                       # Table walker requests started/completed, data/inst
system.cpu0.dstage2_mmu.stage2_tlb.inst_hits            0                       # ITB inst hits
system.cpu0.dstage2_mmu.stage2_tlb.inst_misses            0                       # ITB inst misses
system.cpu0.dstage2_mmu.stage2_tlb.read_hits            0                       # DTB read hits
system.cpu0.dstage2_mmu.stage2_tlb.read_misses            0                       # DTB read misses
system.cpu0.dstage2_mmu.stage2_tlb.write_hits            0                       # DTB write hits
system.cpu0.dstage2_mmu.stage2_tlb.write_misses            0                       # DTB write misses
system.cpu0.dstage2_mmu.stage2_tlb.flush_tlb            0                       # Number of times complete TLB was flushed
system.cpu0.dstage2_mmu.stage2_tlb.flush_tlb_mva            0                       # Number of times TLB was flushed by MVA
system.cpu0.dstage2_mmu.stage2_tlb.flush_tlb_mva_asid            0                       # Number of times TLB was flushed by MVA & ASID
system.cpu0.dstage2_mmu.stage2_tlb.flush_tlb_asid            0                       # Number of times TLB was flushed by ASID
system.cpu0.dstage2_mmu.stage2_tlb.flush_entries            0                       # Number of entries that have been flushed from TLB
system.cpu0.dstage2_mmu.stage2_tlb.align_faults            0                       # Number of TLB faults due to alignment restrictions
system.cpu0.dstage2_mmu.stage2_tlb.prefetch_faults            0                       # Number of TLB faults due to prefetch
system.cpu0.dstage2_mmu.stage2_tlb.domain_faults            0                       # Number of TLB faults due to domain restrictions
system.cpu0.dstage2_mmu.stage2_tlb.perms_faults            0                       # Number of TLB faults due to permissions restrictions
system.cpu0.dstage2_mmu.stage2_tlb.read_accesses            0                       # DTB read accesses
system.cpu0.dstage2_mmu.stage2_tlb.write_accesses            0                       # DTB write accesses
system.cpu0.dstage2_mmu.stage2_tlb.inst_accesses            0                       # ITB inst accesses
system.cpu0.dstage2_mmu.stage2_tlb.hits             0                       # DTB hits
system.cpu0.dstage2_mmu.stage2_tlb.misses            0                       # DTB misses
system.cpu0.dstage2_mmu.stage2_tlb.accesses            0                       # DTB accesses
system.cpu0.dtb.walker.pwrStateResidencyTicks::UNDEFINED 550038142000                       # Cumulative time (in ticks) in various power states
system.cpu0.dtb.walker.walks                        0                       # Table walker walks requested
system.cpu0.dtb.walker.walkRequestOrigin_Requested::Data            0                       # Table walker requests started/completed, data/inst
system.cpu0.dtb.walker.walkRequestOrigin_Requested::Inst            0                       # Table walker requests started/completed, data/inst
system.cpu0.dtb.walker.walkRequestOrigin_Requested::total            0                       # Table walker requests started/completed, data/inst
system.cpu0.dtb.walker.walkRequestOrigin_Completed::Data            0                       # Table walker requests started/completed, data/inst
system.cpu0.dtb.walker.walkRequestOrigin_Completed::Inst            0                       # Table walker requests started/completed, data/inst
system.cpu0.dtb.walker.walkRequestOrigin_Completed::total            0                       # Table walker requests started/completed, data/inst
system.cpu0.dtb.walker.walkRequestOrigin::total            0                       # Table walker requests started/completed, data/inst
system.cpu0.dtb.inst_hits                           0                       # ITB inst hits
system.cpu0.dtb.inst_misses                         0                       # ITB inst misses
system.cpu0.dtb.read_hits                           0                       # DTB read hits
system.cpu0.dtb.read_misses                         0                       # DTB read misses
system.cpu0.dtb.write_hits                          0                       # DTB write hits
system.cpu0.dtb.write_misses                        0                       # DTB write misses
system.cpu0.dtb.flush_tlb                           0                       # Number of times complete TLB was flushed
system.cpu0.dtb.flush_tlb_mva                       0                       # Number of times TLB was flushed by MVA
system.cpu0.dtb.flush_tlb_mva_asid                  0                       # Number of times TLB was flushed by MVA & ASID
system.cpu0.dtb.flush_tlb_asid                      0                       # Number of times TLB was flushed by ASID
system.cpu0.dtb.flush_entries                       0                       # Number of entries that have been flushed from TLB
system.cpu0.dtb.align_faults                        0                       # Number of TLB faults due to alignment restrictions
system.cpu0.dtb.prefetch_faults                     0                       # Number of TLB faults due to prefetch
system.cpu0.dtb.domain_faults                       0                       # Number of TLB faults due to domain restrictions
system.cpu0.dtb.perms_faults                        0                       # Number of TLB faults due to permissions restrictions
system.cpu0.dtb.read_accesses                       0                       # DTB read accesses
system.cpu0.dtb.write_accesses                      0                       # DTB write accesses
system.cpu0.dtb.inst_accesses                       0                       # ITB inst accesses
system.cpu0.dtb.hits                                0                       # DTB hits
system.cpu0.dtb.misses                              0                       # DTB misses
system.cpu0.dtb.accesses                            0                       # DTB accesses
system.cpu0.istage2_mmu.stage2_tlb.walker.pwrStateResidencyTicks::UNDEFINED 550038142000                       # Cumulative time (in ticks) in various power states
system.cpu0.istage2_mmu.stage2_tlb.walker.walks            0                       # Table walker walks requested
system.cpu0.istage2_mmu.stage2_tlb.walker.walkRequestOrigin_Requested::Data            0                       # Table walker requests started/completed, data/inst
system.cpu0.istage2_mmu.stage2_tlb.walker.walkRequestOrigin_Requested::Inst            0                       # Table walker requests started/completed, data/inst
system.cpu0.istage2_mmu.stage2_tlb.walker.walkRequestOrigin_Requested::total            0                       # Table walker requests started/completed, data/inst
system.cpu0.istage2_mmu.stage2_tlb.walker.walkRequestOrigin_Completed::Data            0                       # Table walker requests started/completed, data/inst
system.cpu0.istage2_mmu.stage2_tlb.walker.walkRequestOrigin_Completed::Inst            0                       # Table walker requests started/completed, data/inst
system.cpu0.istage2_mmu.stage2_tlb.walker.walkRequestOrigin_Completed::total            0                       # Table walker requests started/completed, data/inst
system.cpu0.istage2_mmu.stage2_tlb.walker.walkRequestOrigin::total            0                       # Table walker requests started/completed, data/inst
system.cpu0.istage2_mmu.stage2_tlb.inst_hits            0                       # ITB inst hits
system.cpu0.istage2_mmu.stage2_tlb.inst_misses            0                       # ITB inst misses
system.cpu0.istage2_mmu.stage2_tlb.read_hits            0                       # DTB read hits
system.cpu0.istage2_mmu.stage2_tlb.read_misses            0                       # DTB read misses
system.cpu0.istage2_mmu.stage2_tlb.write_hits            0                       # DTB write hits
system.cpu0.istage2_mmu.stage2_tlb.write_misses            0                       # DTB write misses
system.cpu0.istage2_mmu.stage2_tlb.flush_tlb            0                       # Number of times complete TLB was flushed
system.cpu0.istage2_mmu.stage2_tlb.flush_tlb_mva            0                       # Number of times TLB was flushed by MVA
system.cpu0.istage2_mmu.stage2_tlb.flush_tlb_mva_asid            0                       # Number of times TLB was flushed by MVA & ASID
system.cpu0.istage2_mmu.stage2_tlb.flush_tlb_asid            0                       # Number of times TLB was flushed by ASID
system.cpu0.istage2_mmu.stage2_tlb.flush_entries            0                       # Number of entries that have been flushed from TLB
system.cpu0.istage2_mmu.stage2_tlb.align_faults            0                       # Number of TLB faults due to alignment restrictions
system.cpu0.istage2_mmu.stage2_tlb.prefetch_faults            0                       # Number of TLB faults due to prefetch
system.cpu0.istage2_mmu.stage2_tlb.domain_faults            0                       # Number of TLB faults due to domain restrictions
system.cpu0.istage2_mmu.stage2_tlb.perms_faults            0                       # Number of TLB faults due to permissions restrictions
system.cpu0.istage2_mmu.stage2_tlb.read_accesses            0                       # DTB read accesses
system.cpu0.istage2_mmu.stage2_tlb.write_accesses            0                       # DTB write accesses
system.cpu0.istage2_mmu.stage2_tlb.inst_accesses            0                       # ITB inst accesses
system.cpu0.istage2_mmu.stage2_tlb.hits             0                       # DTB hits
system.cpu0.istage2_mmu.stage2_tlb.misses            0                       # DTB misses
system.cpu0.istage2_mmu.stage2_tlb.accesses            0                       # DTB accesses
system.cpu0.itb.walker.pwrStateResidencyTicks::UNDEFINED 550038142000                       # Cumulative time (in ticks) in various power states
system.cpu0.itb.walker.walks                        0                       # Table walker walks requested
system.cpu0.itb.walker.walkRequestOrigin_Requested::Data            0                       # Table walker requests started/completed, data/inst
system.cpu0.itb.walker.walkRequestOrigin_Requested::Inst            0                       # Table walker requests started/completed, data/inst
system.cpu0.itb.walker.walkRequestOrigin_Requested::total            0                       # Table walker requests started/completed, data/inst
system.cpu0.itb.walker.walkRequestOrigin_Completed::Data            0                       # Table walker requests started/completed, data/inst
system.cpu0.itb.walker.walkRequestOrigin_Completed::Inst            0                       # Table walker requests started/completed, data/inst
system.cpu0.itb.walker.walkRequestOrigin_Completed::total            0                       # Table walker requests started/completed, data/inst
system.cpu0.itb.walker.walkRequestOrigin::total            0                       # Table walker requests started/completed, data/inst
system.cpu0.itb.inst_hits                           0                       # ITB inst hits
system.cpu0.itb.inst_misses                         0                       # ITB inst misses
system.cpu0.itb.read_hits                           0                       # DTB read hits
system.cpu0.itb.read_misses                         0                       # DTB read misses
system.cpu0.itb.write_hits                          0                       # DTB write hits
system.cpu0.itb.write_misses                        0                       # DTB write misses
system.cpu0.itb.flush_tlb                           0                       # Number of times complete TLB was flushed
system.cpu0.itb.flush_tlb_mva                       0                       # Number of times TLB was flushed by MVA
system.cpu0.itb.flush_tlb_mva_asid                  0                       # Number of times TLB was flushed by MVA & ASID
system.cpu0.itb.flush_tlb_asid                      0                       # Number of times TLB was flushed by ASID
system.cpu0.itb.flush_entries                       0                       # Number of entries that have been flushed from TLB
system.cpu0.itb.align_faults                        0                       # Number of TLB faults due to alignment restrictions
system.cpu0.itb.prefetch_faults                     0                       # Number of TLB faults due to prefetch
system.cpu0.itb.domain_faults                       0                       # Number of TLB faults due to domain restrictions
system.cpu0.itb.perms_faults                        0                       # Number of TLB faults due to permissions restrictions
system.cpu0.itb.read_accesses                       0                       # DTB read accesses
system.cpu0.itb.write_accesses                      0                       # DTB write accesses
system.cpu0.itb.inst_accesses                       0                       # ITB inst accesses
system.cpu0.itb.hits                                0                       # DTB hits
system.cpu0.itb.misses                              0                       # DTB misses
system.cpu0.itb.accesses                            0                       # DTB accesses
system.cpu0.workload.num_syscalls                9847                       # Number of system calls
system.cpu0.pwrStateResidencyTicks::ON   550038142000                       # Cumulative time (in ticks) in various power states
system.cpu0.numCycles                       550038143                       # number of cpu cycles simulated
system.cpu0.numWorkItemsStarted                     0                       # number of work items this cpu started
system.cpu0.numWorkItemsCompleted                   0                       # number of work items this cpu completed
system.cpu0.fetch.icacheStallCycles         104498230                       # Number of cycles fetch is stalled on an Icache miss
system.cpu0.fetch.Insts                     666346611                       # Number of instructions fetch has processed
system.cpu0.fetch.Branches                  115854201                       # Number of branches that fetch encountered
system.cpu0.fetch.predictedBranches          74376937                       # Number of branches that fetch has predicted taken
system.cpu0.fetch.Cycles                    442663801                       # Number of cycles fetch has run and was not squashing or blocked
system.cpu0.fetch.SquashCycles                5620283                       # Number of cycles fetch has spent squashing
system.cpu0.fetch.MiscStallCycles                   3                       # Number of cycles fetch has spent waiting on interrupts, or bad addresses, or out of MSHRs
system.cpu0.fetch.PendingTrapStallCycles          215                       # Number of stall cycles due to pending traps
system.cpu0.fetch.CacheLines                 93110110                       # Number of cache lines fetched
system.cpu0.fetch.IcacheSquashes               515173                       # Number of outstanding Icache misses that were squashed
system.cpu0.fetch.rateDist::samples         549972390                       # Number of instructions fetched each cycle (Total)
system.cpu0.fetch.rateDist::mean             1.371074                       # Number of instructions fetched each cycle (Total)
system.cpu0.fetch.rateDist::stdev            0.861024                       # Number of instructions fetched each cycle (Total)
system.cpu0.fetch.rateDist::underflows              0      0.00%      0.00% # Number of instructions fetched each cycle (Total)
system.cpu0.fetch.rateDist::0               139688664     25.40%     25.40% # Number of instructions fetched each cycle (Total)
system.cpu0.fetch.rateDist::1                66514412     12.09%     37.49% # Number of instructions fetched each cycle (Total)
system.cpu0.fetch.rateDist::2               343769314     62.51%    100.00% # Number of instructions fetched each cycle (Total)
system.cpu0.fetch.rateDist::overflows               0      0.00%    100.00% # Number of instructions fetched each cycle (Total)
system.cpu0.fetch.rateDist::min_value               0                       # Number of instructions fetched each cycle (Total)
system.cpu0.fetch.rateDist::max_value               2                       # Number of instructions fetched each cycle (Total)
system.cpu0.fetch.rateDist::total           549972390                       # Number of instructions fetched each cycle (Total)
system.cpu0.fetch.branchRate                 0.210629                       # Number of branch fetches per cycle
system.cpu0.fetch.rate                       1.211455                       # Number of inst fetches per cycle
system.cpu0.decode.IdleCycles                87716649                       # Number of cycles decode is idle
system.cpu0.decode.BlockedCycles             80413874                       # Number of cycles decode is blocked
system.cpu0.decode.RunCycles                293915820                       # Number of cycles decode is running
system.cpu0.decode.UnblockCycles             85324210                       # Number of cycles decode is unblocking
system.cpu0.decode.SquashCycles               2601837                       # Number of cycles decode is squashing
system.cpu0.decode.BranchResolved            34174042                       # Number of times decode resolved a branch
system.cpu0.decode.BranchMispred               209433                       # Number of times decode detected a branch misprediction
system.cpu0.decode.DecodedInsts             737786596                       # Number of instructions handled by decode
system.cpu0.decode.SquashedInsts               355819                       # Number of squashed instructions handled by decode
system.cpu0.rename.SquashCycles               2601837                       # Number of cycles rename is squashing
system.cpu0.rename.IdleCycles               105791117                       # Number of cycles rename is idle
system.cpu0.rename.BlockCycles                9046311                       # Number of cycles rename is blocking
system.cpu0.rename.serializeStallCycles       2665504                       # count of cycles rename stalled for serializing inst
system.cpu0.rename.RunCycles                361017086                       # Number of cycles rename is running
system.cpu0.rename.UnblockCycles             68850535                       # Number of cycles rename is unblocking
system.cpu0.rename.RenamedInsts             733825378                       # Number of instructions processed by rename
system.cpu0.rename.IQFullEvents              52638073                       # Number of times rename has blocked due to IQ full
system.cpu0.rename.LQFullEvents                363264                       # Number of times rename has blocked due to LQ full
system.cpu0.rename.SQFullEvents                  9020                       # Number of times rename has blocked due to SQ full
system.cpu0.rename.RenamedOperands          934057643                       # Number of destination operands rename has renamed
system.cpu0.rename.RenameLookups           3413001123                       # Number of register rename lookups that rename has made
system.cpu0.rename.int_rename_lookups       953350386                       # Number of integer rename lookups
system.cpu0.rename.fp_rename_lookups               16                       # Number of floating rename lookups
system.cpu0.rename.CommittedMaps            803210931                       # Number of HB maps that are committed
system.cpu0.rename.UndoneMaps               130846712                       # Number of HB maps that are undone due to squashing
system.cpu0.rename.serializingInsts             98005                       # count of serializing insts renamed
system.cpu0.rename.tempSerializingInsts         49134                       # count of temporary serializing insts renamed
system.cpu0.rename.skidInsts                 74050174                       # count of insts added to the skid buffer
system.cpu0.memDep0.insertedLoads            90727633                       # Number of loads inserted to the mem dependence unit.
system.cpu0.memDep0.insertedStores           55880001                       # Number of stores inserted to the mem dependence unit.
system.cpu0.memDep0.conflictingLoads         32525054                       # Number of conflicting loads.
system.cpu0.memDep0.conflictingStores        12416648                       # Number of conflicting stores.
system.cpu0.iq.iqInstsAdded                 725952083                       # Number of instructions added to the IQ (excludes non-spec)
system.cpu0.iq.iqNonSpecInstsAdded             106418                       # Number of non-speculative instructions added to the IQ
system.cpu0.iq.iqInstsIssued                654822217                       # Number of instructions issued
system.cpu0.iq.iqSquashedInstsIssued          9716517                       # Number of squashed instructions issued
system.cpu0.iq.iqSquashedInstsExamined       83149160                       # Number of squashed instructions iterated over during squash; mainly for profiling
system.cpu0.iq.iqSquashedOperandsExamined    340216452                       # Number of squashed operands that are examined and possibly removed from graph
system.cpu0.iq.iqSquashedNonSpecRemoved           788                       # Number of squashed non-spec instructions that were removed
system.cpu0.iq.issued_per_cycle::samples    549972390                       # Number of insts issued each cycle
system.cpu0.iq.issued_per_cycle::mean        1.190646                       # Number of insts issued each cycle
system.cpu0.iq.issued_per_cycle::stdev       0.522185                       # Number of insts issued each cycle
system.cpu0.iq.issued_per_cycle::underflows            0      0.00%      0.00% # Number of insts issued each cycle
system.cpu0.iq.issued_per_cycle::0           32552004      5.92%      5.92% # Number of insts issued each cycle
system.cpu0.iq.issued_per_cycle::1          380018555     69.10%     75.02% # Number of insts issued each cycle
system.cpu0.iq.issued_per_cycle::2          137401831     24.98%    100.00% # Number of insts issued each cycle
system.cpu0.iq.issued_per_cycle::overflows            0      0.00%    100.00% # Number of insts issued each cycle
system.cpu0.iq.issued_per_cycle::min_value            0                       # Number of insts issued each cycle
system.cpu0.iq.issued_per_cycle::max_value            2                       # Number of insts issued each cycle
system.cpu0.iq.issued_per_cycle::total      549972390                       # Number of insts issued each cycle
system.cpu0.iq.fu_full::No_OpClass                  0      0.00%      0.00% # attempts to use FU when none available
system.cpu0.iq.fu_full::IntAlu              404121716     94.90%     94.90% # attempts to use FU when none available
system.cpu0.iq.fu_full::IntMult                     0      0.00%     94.90% # attempts to use FU when none available
system.cpu0.iq.fu_full::IntDiv                      0      0.00%     94.90% # attempts to use FU when none available
system.cpu0.iq.fu_full::FloatAdd                    0      0.00%     94.90% # attempts to use FU when none available
system.cpu0.iq.fu_full::FloatCmp                    0      0.00%     94.90% # attempts to use FU when none available
system.cpu0.iq.fu_full::FloatCvt                    0      0.00%     94.90% # attempts to use FU when none available
system.cpu0.iq.fu_full::FloatMult                   0      0.00%     94.90% # attempts to use FU when none available
system.cpu0.iq.fu_full::FloatMultAcc                0      0.00%     94.90% # attempts to use FU when none available
system.cpu0.iq.fu_full::FloatDiv                    0      0.00%     94.90% # attempts to use FU when none available
system.cpu0.iq.fu_full::FloatMisc                   0      0.00%     94.90% # attempts to use FU when none available
system.cpu0.iq.fu_full::FloatSqrt                   0      0.00%     94.90% # attempts to use FU when none available
system.cpu0.iq.fu_full::SimdAdd                     0      0.00%     94.90% # attempts to use FU when none available
system.cpu0.iq.fu_full::SimdAddAcc                  0      0.00%     94.90% # attempts to use FU when none available
system.cpu0.iq.fu_full::SimdAlu                     0      0.00%     94.90% # attempts to use FU when none available
system.cpu0.iq.fu_full::SimdCmp                     0      0.00%     94.90% # attempts to use FU when none available
system.cpu0.iq.fu_full::SimdCvt                     0      0.00%     94.90% # attempts to use FU when none available
system.cpu0.iq.fu_full::SimdMisc                    0      0.00%     94.90% # attempts to use FU when none available
system.cpu0.iq.fu_full::SimdMult                    0      0.00%     94.90% # attempts to use FU when none available
system.cpu0.iq.fu_full::SimdMultAcc                 0      0.00%     94.90% # attempts to use FU when none available
system.cpu0.iq.fu_full::SimdShift                   0      0.00%     94.90% # attempts to use FU when none available
system.cpu0.iq.fu_full::SimdShiftAcc                0      0.00%     94.90% # attempts to use FU when none available
system.cpu0.iq.fu_full::SimdSqrt                    0      0.00%     94.90% # attempts to use FU when none available
system.cpu0.iq.fu_full::SimdFloatAdd                0      0.00%     94.90% # attempts to use FU when none available
system.cpu0.iq.fu_full::SimdFloatAlu                0      0.00%     94.90% # attempts to use FU when none available
system.cpu0.iq.fu_full::SimdFloatCmp                0      0.00%     94.90% # attempts to use FU when none available
system.cpu0.iq.fu_full::SimdFloatCvt                0      0.00%     94.90% # attempts to use FU when none available
system.cpu0.iq.fu_full::SimdFloatDiv                0      0.00%     94.90% # attempts to use FU when none available
system.cpu0.iq.fu_full::SimdFloatMisc               0      0.00%     94.90% # attempts to use FU when none available
system.cpu0.iq.fu_full::SimdFloatMult               0      0.00%     94.90% # attempts to use FU when none available
system.cpu0.iq.fu_full::SimdFloatMultAcc            0      0.00%     94.90% # attempts to use FU when none available
system.cpu0.iq.fu_full::SimdFloatSqrt               0      0.00%     94.90% # attempts to use FU when none available
system.cpu0.iq.fu_full::MemRead              15642353      3.67%     98.58% # attempts to use FU when none available
system.cpu0.iq.fu_full::MemWrite              6053093      1.42%    100.00% # attempts to use FU when none available
system.cpu0.iq.fu_full::FloatMemRead                0      0.00%    100.00% # attempts to use FU when none available
system.cpu0.iq.fu_full::FloatMemWrite               0      0.00%    100.00% # attempts to use FU when none available
system.cpu0.iq.fu_full::IprAccess                   0      0.00%    100.00% # attempts to use FU when none available
system.cpu0.iq.fu_full::InstPrefetch                0      0.00%    100.00% # attempts to use FU when none available
system.cpu0.iq.FU_type_0::No_OpClass                0      0.00%      0.00% # Type of FU issued
system.cpu0.iq.FU_type_0::IntAlu            510828292     78.01%     78.01% # Type of FU issued
system.cpu0.iq.FU_type_0::IntMult             3744255      0.57%     78.58% # Type of FU issued
system.cpu0.iq.FU_type_0::IntDiv                    0      0.00%     78.58% # Type of FU issued
system.cpu0.iq.FU_type_0::FloatAdd                  0      0.00%     78.58% # Type of FU issued
system.cpu0.iq.FU_type_0::FloatCmp                  0      0.00%     78.58% # Type of FU issued
system.cpu0.iq.FU_type_0::FloatCvt                  0      0.00%     78.58% # Type of FU issued
system.cpu0.iq.FU_type_0::FloatMult                 0      0.00%     78.58% # Type of FU issued
system.cpu0.iq.FU_type_0::FloatMultAcc              0      0.00%     78.58% # Type of FU issued
system.cpu0.iq.FU_type_0::FloatDiv                  0      0.00%     78.58% # Type of FU issued
system.cpu0.iq.FU_type_0::FloatMisc                 0      0.00%     78.58% # Type of FU issued
system.cpu0.iq.FU_type_0::FloatSqrt                 0      0.00%     78.58% # Type of FU issued
system.cpu0.iq.FU_type_0::SimdAdd                   0      0.00%     78.58% # Type of FU issued
system.cpu0.iq.FU_type_0::SimdAddAcc                0      0.00%     78.58% # Type of FU issued
system.cpu0.iq.FU_type_0::SimdAlu                   0      0.00%     78.58% # Type of FU issued
system.cpu0.iq.FU_type_0::SimdCmp                   0      0.00%     78.58% # Type of FU issued
system.cpu0.iq.FU_type_0::SimdCvt                   0      0.00%     78.58% # Type of FU issued
system.cpu0.iq.FU_type_0::SimdMisc                  0      0.00%     78.58% # Type of FU issued
system.cpu0.iq.FU_type_0::SimdMult                  0      0.00%     78.58% # Type of FU issued
system.cpu0.iq.FU_type_0::SimdMultAcc               0      0.00%     78.58% # Type of FU issued
system.cpu0.iq.FU_type_0::SimdShift                 0      0.00%     78.58% # Type of FU issued
system.cpu0.iq.FU_type_0::SimdShiftAcc              0      0.00%     78.58% # Type of FU issued
system.cpu0.iq.FU_type_0::SimdSqrt                  0      0.00%     78.58% # Type of FU issued
system.cpu0.iq.FU_type_0::SimdFloatAdd              0      0.00%     78.58% # Type of FU issued
system.cpu0.iq.FU_type_0::SimdFloatAlu              0      0.00%     78.58% # Type of FU issued
system.cpu0.iq.FU_type_0::SimdFloatCmp              0      0.00%     78.58% # Type of FU issued
system.cpu0.iq.FU_type_0::SimdFloatCvt              0      0.00%     78.58% # Type of FU issued
system.cpu0.iq.FU_type_0::SimdFloatDiv              0      0.00%     78.58% # Type of FU issued
system.cpu0.iq.FU_type_0::SimdFloatMisc         47348      0.01%     78.59% # Type of FU issued
system.cpu0.iq.FU_type_0::SimdFloatMult             0      0.00%     78.59% # Type of FU issued
system.cpu0.iq.FU_type_0::SimdFloatMultAcc            0      0.00%     78.59% # Type of FU issued
system.cpu0.iq.FU_type_0::SimdFloatSqrt             0      0.00%     78.59% # Type of FU issued
system.cpu0.iq.FU_type_0::MemRead            87810430     13.41%     92.00% # Type of FU issued
system.cpu0.iq.FU_type_0::MemWrite           52391876      8.00%    100.00% # Type of FU issued
system.cpu0.iq.FU_type_0::FloatMemRead              0      0.00%    100.00% # Type of FU issued
system.cpu0.iq.FU_type_0::FloatMemWrite            16      0.00%    100.00% # Type of FU issued
system.cpu0.iq.FU_type_0::IprAccess                 0      0.00%    100.00% # Type of FU issued
system.cpu0.iq.FU_type_0::InstPrefetch              0      0.00%    100.00% # Type of FU issued
system.cpu0.iq.FU_type_0::total             654822217                       # Type of FU issued
system.cpu0.iq.rate                          1.190503                       # Inst issue rate
system.cpu0.iq.fu_busy_cnt                  425817162                       # FU busy when requested
system.cpu0.iq.fu_busy_rate                  0.650279                       # FU busy rate (busy events/executed inst)
system.cpu0.iq.int_inst_queue_reads        2295150471                       # Number of integer instruction queue reads
system.cpu0.iq.int_inst_queue_writes        809217808                       # Number of integer instruction queue writes
system.cpu0.iq.int_inst_queue_wakeup_accesses    652660217                       # Number of integer instruction queue wakeup accesses
system.cpu0.iq.fp_inst_queue_reads                 32                       # Number of floating instruction queue reads
system.cpu0.iq.fp_inst_queue_writes                16                       # Number of floating instruction queue writes
system.cpu0.iq.fp_inst_queue_wakeup_accesses           16                       # Number of floating instruction queue wakeup accesses
system.cpu0.iq.int_alu_accesses            1080639363                       # Number of integer alu accesses
system.cpu0.iq.fp_alu_accesses                     16                       # Number of floating point alu accesses
system.cpu0.iew.lsq.thread0.forwLoads        13443207                       # Number of loads that had data forwarded from stores
system.cpu0.iew.lsq.thread0.invAddrLoads            0                       # Number of loads ignored due to an invalid address
system.cpu0.iew.lsq.thread0.squashedLoads      6687412                       # Number of loads squashed
system.cpu0.iew.lsq.thread0.ignoredResponses         2475                       # Number of memory responses ignored because the instruction is squashed
system.cpu0.iew.lsq.thread0.memOrderViolation        10219                       # Number of memory ordering violations
system.cpu0.iew.lsq.thread0.squashedStores      4595964                       # Number of stores squashed
system.cpu0.iew.lsq.thread0.invAddrSwpfs            0                       # Number of software prefetches ignored due to an invalid address
system.cpu0.iew.lsq.thread0.blockedLoads            0                       # Number of blocked loads due to partial load-store forwarding
system.cpu0.iew.lsq.thread0.rescheduledLoads       919342                       # Number of loads that were rescheduled
system.cpu0.iew.lsq.thread0.cacheBlocked         4258                       # Number of times an access to memory failed due to the cache being blocked
system.cpu0.iew.iewIdleCycles                       0                       # Number of cycles IEW is idle
system.cpu0.iew.iewSquashCycles               2601837                       # Number of cycles IEW is squashing
system.cpu0.iew.iewBlockCycles                8884220                       # Number of cycles IEW is blocking
system.cpu0.iew.iewUnblockCycles               115647                       # Number of cycles IEW is unblocking
system.cpu0.iew.iewDispatchedInsts          726058548                       # Number of instructions dispatched to IQ
system.cpu0.iew.iewDispSquashedInsts           514634                       # Number of squashed instructions skipped by dispatch
system.cpu0.iew.iewDispLoadInsts             90727633                       # Number of dispatched load instructions
system.cpu0.iew.iewDispStoreInsts            55880001                       # Number of dispatched store instructions
system.cpu0.iew.iewDispNonSpecInsts             48906                       # Number of dispatched non-speculative instructions
system.cpu0.iew.iewIQFullEvents                   197                       # Number of times the IQ has become full, causing a stall
system.cpu0.iew.iewLSQFullEvents                 2853                       # Number of times the LSQ has become full, causing a stall
system.cpu0.iew.memOrderViolationEvents         10219                       # Number of memory order violations
system.cpu0.iew.predictedTakenIncorrect       1371915                       # Number of branches that were predicted taken incorrectly
system.cpu0.iew.predictedNotTakenIncorrect      1371744                       # Number of branches that were predicted not taken incorrectly
system.cpu0.iew.branchMispredicts             2743659                       # Number of branch mispredicts detected at execute
system.cpu0.iew.iewExecutedInsts            654047737                       # Number of executed instructions
system.cpu0.iew.iewExecLoadInsts             87548030                       # Number of load instructions executed
system.cpu0.iew.iewExecSquashedInsts           774480                       # Number of squashed instructions skipped in execute
system.cpu0.iew.exec_swp                            0                       # number of swp insts executed
system.cpu0.iew.exec_nop                           47                       # number of nop insts executed
system.cpu0.iew.exec_refs                   139819703                       # number of memory reference insts executed
system.cpu0.iew.exec_branches                99685137                       # Number of branches executed
system.cpu0.iew.exec_stores                  52271673                       # Number of stores executed
system.cpu0.iew.exec_rate                    1.189095                       # Inst execution rate
system.cpu0.iew.wb_sent                     652773999                       # cumulative count of insts sent to commit
system.cpu0.iew.wb_count                    652660233                       # cumulative count of insts written-back
system.cpu0.iew.wb_producers                487069278                       # num instructions producing a value
system.cpu0.iew.wb_consumers               1162111713                       # num instructions consuming a value
system.cpu0.iew.wb_rate                      1.186573                       # insts written-back per cycle
system.cpu0.iew.wb_fanout                    0.419124                       # average fanout of values written-back
system.cpu0.commit.commitSquashedInsts       83150033                       # The number of squashed insts skipped by commit
system.cpu0.commit.commitNonSpecStalls         105630                       # The number of times commit has been forced to stall to communicate backwards
system.cpu0.commit.branchMispredicts          2582383                       # The number of times a branch was mispredicted
system.cpu0.commit.committed_per_cycle::samples    538496757                       # Number of insts commited each cycle
system.cpu0.commit.committed_per_cycle::mean     1.193896                       # Number of insts commited each cycle
system.cpu0.commit.committed_per_cycle::stdev     1.038881                       # Number of insts commited each cycle
system.cpu0.commit.committed_per_cycle::underflows            0      0.00%      0.00% # Number of insts commited each cycle
system.cpu0.commit.committed_per_cycle::0     59199324     10.99%     10.99% # Number of insts commited each cycle
system.cpu0.commit.committed_per_cycle::1    397621661     73.84%     84.83% # Number of insts commited each cycle
system.cpu0.commit.committed_per_cycle::2     48904098      9.08%     93.91% # Number of insts commited each cycle
system.cpu0.commit.committed_per_cycle::3     14453666      2.68%     96.60% # Number of insts commited each cycle
system.cpu0.commit.committed_per_cycle::4      6239485      1.16%     97.76% # Number of insts commited each cycle
system.cpu0.commit.committed_per_cycle::5      1226734      0.23%     97.98% # Number of insts commited each cycle
system.cpu0.commit.committed_per_cycle::6      3614247      0.67%     98.66% # Number of insts commited each cycle
system.cpu0.commit.committed_per_cycle::7      6558942      1.22%     99.87% # Number of insts commited each cycle
system.cpu0.commit.committed_per_cycle::8       678600      0.13%    100.00% # Number of insts commited each cycle
system.cpu0.commit.committed_per_cycle::overflows            0      0.00%    100.00% # Number of insts commited each cycle
system.cpu0.commit.committed_per_cycle::min_value            0                       # Number of insts commited each cycle
system.cpu0.commit.committed_per_cycle::max_value            8                       # Number of insts commited each cycle
system.cpu0.commit.committed_per_cycle::total    538496757                       # Number of insts commited each cycle
system.cpu0.commit.committedInsts           568667623                       # Number of instructions committed
system.cpu0.commit.committedOps             642909341                       # Number of ops (including micro ops) committed
system.cpu0.commit.swp_count                        0                       # Number of s/w prefetches committed
system.cpu0.commit.refs                     135324258                       # Number of memory references committed
system.cpu0.commit.loads                     84040221                       # Number of loads committed
system.cpu0.commit.membars                      57488                       # Number of memory barriers committed
system.cpu0.commit.branches                  98708087                       # Number of branches committed
system.cpu0.commit.fp_insts                        16                       # Number of committed floating point instructions.
system.cpu0.commit.int_insts                587305356                       # Number of committed integer instructions.
system.cpu0.commit.function_calls            18093734                       # Number of function calls committed.
system.cpu0.commit.op_class_0::No_OpClass            0      0.00%      0.00% # Class of committed instruction
system.cpu0.commit.op_class_0::IntAlu       503928746     78.38%     78.38% # Class of committed instruction
system.cpu0.commit.op_class_0::IntMult        3608989      0.56%     78.94% # Class of committed instruction
system.cpu0.commit.op_class_0::IntDiv               0      0.00%     78.94% # Class of committed instruction
system.cpu0.commit.op_class_0::FloatAdd             0      0.00%     78.94% # Class of committed instruction
system.cpu0.commit.op_class_0::FloatCmp             0      0.00%     78.94% # Class of committed instruction
system.cpu0.commit.op_class_0::FloatCvt             0      0.00%     78.94% # Class of committed instruction
system.cpu0.commit.op_class_0::FloatMult            0      0.00%     78.94% # Class of committed instruction
system.cpu0.commit.op_class_0::FloatMultAcc            0      0.00%     78.94% # Class of committed instruction
system.cpu0.commit.op_class_0::FloatDiv             0      0.00%     78.94% # Class of committed instruction
system.cpu0.commit.op_class_0::FloatMisc            0      0.00%     78.94% # Class of committed instruction
system.cpu0.commit.op_class_0::FloatSqrt            0      0.00%     78.94% # Class of committed instruction
system.cpu0.commit.op_class_0::SimdAdd              0      0.00%     78.94% # Class of committed instruction
system.cpu0.commit.op_class_0::SimdAddAcc            0      0.00%     78.94% # Class of committed instruction
system.cpu0.commit.op_class_0::SimdAlu              0      0.00%     78.94% # Class of committed instruction
system.cpu0.commit.op_class_0::SimdCmp              0      0.00%     78.94% # Class of committed instruction
system.cpu0.commit.op_class_0::SimdCvt              0      0.00%     78.94% # Class of committed instruction
system.cpu0.commit.op_class_0::SimdMisc             0      0.00%     78.94% # Class of committed instruction
system.cpu0.commit.op_class_0::SimdMult             0      0.00%     78.94% # Class of committed instruction
system.cpu0.commit.op_class_0::SimdMultAcc            0      0.00%     78.94% # Class of committed instruction
system.cpu0.commit.op_class_0::SimdShift            0      0.00%     78.94% # Class of committed instruction
system.cpu0.commit.op_class_0::SimdShiftAcc            0      0.00%     78.94% # Class of committed instruction
system.cpu0.commit.op_class_0::SimdSqrt             0      0.00%     78.94% # Class of committed instruction
system.cpu0.commit.op_class_0::SimdFloatAdd            0      0.00%     78.94% # Class of committed instruction
system.cpu0.commit.op_class_0::SimdFloatAlu            0      0.00%     78.94% # Class of committed instruction
system.cpu0.commit.op_class_0::SimdFloatCmp            0      0.00%     78.94% # Class of committed instruction
system.cpu0.commit.op_class_0::SimdFloatCvt            0      0.00%     78.94% # Class of committed instruction
system.cpu0.commit.op_class_0::SimdFloatDiv            0      0.00%     78.94% # Class of committed instruction
system.cpu0.commit.op_class_0::SimdFloatMisc        47348      0.01%     78.95% # Class of committed instruction
system.cpu0.commit.op_class_0::SimdFloatMult            0      0.00%     78.95% # Class of committed instruction
system.cpu0.commit.op_class_0::SimdFloatMultAcc            0      0.00%     78.95% # Class of committed instruction
system.cpu0.commit.op_class_0::SimdFloatSqrt            0      0.00%     78.95% # Class of committed instruction
system.cpu0.commit.op_class_0::MemRead       84040221     13.07%     92.02% # Class of committed instruction
system.cpu0.commit.op_class_0::MemWrite      51284021      7.98%    100.00% # Class of committed instruction
system.cpu0.commit.op_class_0::FloatMemRead            0      0.00%    100.00% # Class of committed instruction
system.cpu0.commit.op_class_0::FloatMemWrite           16      0.00%    100.00% # Class of committed instruction
system.cpu0.commit.op_class_0::IprAccess            0      0.00%    100.00% # Class of committed instruction
system.cpu0.commit.op_class_0::InstPrefetch            0      0.00%    100.00% # Class of committed instruction
system.cpu0.commit.op_class_0::total        642909341                       # Class of committed instruction
system.cpu0.commit.bw_lim_events               678600                       # number cycles where commit BW limit reached
system.cpu0.rob.rob_reads                  1263749474                       # The number of ROB reads
system.cpu0.rob.rob_writes                 1463595161                       # The number of ROB writes
system.cpu0.timesIdled                          15859                       # Number of times that the entire CPU went into an idle state and unscheduled itself
system.cpu0.idleCycles                          65753                       # Total number of cycles that the CPU has spent unscheduled due to idling
system.cpu0.committedInsts                  568667623                       # Number of Instructions Simulated
system.cpu0.committedOps                    642909341                       # Number of Ops (including micro ops) Simulated
system.cpu0.cpi                              0.967240                       # CPI: Cycles Per Instruction
system.cpu0.cpi_total                        0.967240                       # CPI: Total CPI of All Threads
system.cpu0.ipc                              1.033869                       # IPC: Instructions Per Cycle
system.cpu0.ipc_total                        1.033869                       # IPC: Total IPC of All Threads
system.cpu0.int_regfile_reads               775739493                       # number of integer regfile reads
system.cpu0.int_regfile_writes              467255253                       # number of integer regfile writes
system.cpu0.fp_regfile_reads                       16                       # number of floating regfile reads
system.cpu0.cc_regfile_reads               2247397330                       # number of cc regfile reads
system.cpu0.cc_regfile_writes               336510496                       # number of cc regfile writes
system.cpu0.misc_regfile_reads              137427542                       # number of misc regfile reads
system.cpu0.misc_regfile_writes                 76545                       # number of misc regfile writes
system.cpu0.dcache.tags.pwrStateResidencyTicks::UNDEFINED 550038142000                       # Cumulative time (in ticks) in various power states
system.cpu0.dcache.tags.replacements            21633                       # number of replacements
system.cpu0.dcache.tags.tagsinuse          255.907856                       # Cycle average of tags in use
system.cpu0.dcache.tags.total_refs          121547949                       # Total number of references to valid blocks.
system.cpu0.dcache.tags.sampled_refs            21889                       # Sample count of references to valid blocks.
system.cpu0.dcache.tags.avg_refs          5552.923797                       # Average number of references to valid blocks.
system.cpu0.dcache.tags.warmup_cycle      11921324500                       # Cycle when the warmup percentage was hit.
system.cpu0.dcache.tags.occ_blocks::cpu0.data   255.907856                       # Average occupied blocks per requestor
system.cpu0.dcache.tags.occ_percent::cpu0.data     0.999640                       # Average percentage of cache occupancy
system.cpu0.dcache.tags.occ_percent::total     0.999640                       # Average percentage of cache occupancy
system.cpu0.dcache.tags.occ_task_id_blocks::1024          256                       # Occupied blocks per task id
system.cpu0.dcache.tags.age_task_id_blocks_1024::0           26                       # Occupied blocks per task id
system.cpu0.dcache.tags.age_task_id_blocks_1024::1           47                       # Occupied blocks per task id
system.cpu0.dcache.tags.age_task_id_blocks_1024::2           85                       # Occupied blocks per task id
system.cpu0.dcache.tags.age_task_id_blocks_1024::3           69                       # Occupied blocks per task id
system.cpu0.dcache.tags.age_task_id_blocks_1024::4           29                       # Occupied blocks per task id
system.cpu0.dcache.tags.occ_task_id_percent::1024            1                       # Percentage of cache occupancy per task id
system.cpu0.dcache.tags.tag_accesses        486356093                       # Number of tag accesses
system.cpu0.dcache.tags.data_accesses       486356093                       # Number of data accesses
system.cpu0.dcache.pwrStateResidencyTicks::UNDEFINED 550038142000                       # Cumulative time (in ticks) in various power states
system.cpu0.dcache.ReadReq_hits::cpu0.data     70407780                       # number of ReadReq hits
system.cpu0.dcache.ReadReq_hits::total       70407780                       # number of ReadReq hits
system.cpu0.dcache.WriteReq_hits::cpu0.data     51063726                       # number of WriteReq hits
system.cpu0.dcache.WriteReq_hits::total      51063726                       # number of WriteReq hits
system.cpu0.dcache.LoadLockedReq_hits::cpu0.data        38194                       # number of LoadLockedReq hits
system.cpu0.dcache.LoadLockedReq_hits::total        38194                       # number of LoadLockedReq hits
system.cpu0.dcache.StoreCondReq_hits::cpu0.data        38249                       # number of StoreCondReq hits
system.cpu0.dcache.StoreCondReq_hits::total        38249                       # number of StoreCondReq hits
system.cpu0.dcache.demand_hits::cpu0.data    121471506                       # number of demand (read+write) hits
system.cpu0.dcache.demand_hits::total       121471506                       # number of demand (read+write) hits
system.cpu0.dcache.overall_hits::cpu0.data    121471506                       # number of overall hits
system.cpu0.dcache.overall_hits::total      121471506                       # number of overall hits
system.cpu0.dcache.ReadReq_misses::cpu0.data        15684                       # number of ReadReq misses
system.cpu0.dcache.ReadReq_misses::total        15684                       # number of ReadReq misses
system.cpu0.dcache.WriteReq_misses::cpu0.data        19827                       # number of WriteReq misses
system.cpu0.dcache.WriteReq_misses::total        19827                       # number of WriteReq misses
system.cpu0.dcache.LoadLockedReq_misses::cpu0.data           91                       # number of LoadLockedReq misses
system.cpu0.dcache.LoadLockedReq_misses::total           91                       # number of LoadLockedReq misses
system.cpu0.dcache.demand_misses::cpu0.data        35511                       # number of demand (read+write) misses
system.cpu0.dcache.demand_misses::total         35511                       # number of demand (read+write) misses
system.cpu0.dcache.overall_misses::cpu0.data        35511                       # number of overall misses
system.cpu0.dcache.overall_misses::total        35511                       # number of overall misses
system.cpu0.dcache.ReadReq_miss_latency::cpu0.data    317350000                       # number of ReadReq miss cycles
system.cpu0.dcache.ReadReq_miss_latency::total    317350000                       # number of ReadReq miss cycles
system.cpu0.dcache.WriteReq_miss_latency::cpu0.data    655644441                       # number of WriteReq miss cycles
system.cpu0.dcache.WriteReq_miss_latency::total    655644441                       # number of WriteReq miss cycles
system.cpu0.dcache.LoadLockedReq_miss_latency::cpu0.data      1525000                       # number of LoadLockedReq miss cycles
system.cpu0.dcache.LoadLockedReq_miss_latency::total      1525000                       # number of LoadLockedReq miss cycles
system.cpu0.dcache.demand_miss_latency::cpu0.data    972994441                       # number of demand (read+write) miss cycles
system.cpu0.dcache.demand_miss_latency::total    972994441                       # number of demand (read+write) miss cycles
system.cpu0.dcache.overall_miss_latency::cpu0.data    972994441                       # number of overall miss cycles
system.cpu0.dcache.overall_miss_latency::total    972994441                       # number of overall miss cycles
system.cpu0.dcache.ReadReq_accesses::cpu0.data     70423464                       # number of ReadReq accesses(hits+misses)
system.cpu0.dcache.ReadReq_accesses::total     70423464                       # number of ReadReq accesses(hits+misses)
system.cpu0.dcache.WriteReq_accesses::cpu0.data     51083553                       # number of WriteReq accesses(hits+misses)
system.cpu0.dcache.WriteReq_accesses::total     51083553                       # number of WriteReq accesses(hits+misses)
system.cpu0.dcache.LoadLockedReq_accesses::cpu0.data        38285                       # number of LoadLockedReq accesses(hits+misses)
system.cpu0.dcache.LoadLockedReq_accesses::total        38285                       # number of LoadLockedReq accesses(hits+misses)
system.cpu0.dcache.StoreCondReq_accesses::cpu0.data        38249                       # number of StoreCondReq accesses(hits+misses)
system.cpu0.dcache.StoreCondReq_accesses::total        38249                       # number of StoreCondReq accesses(hits+misses)
system.cpu0.dcache.demand_accesses::cpu0.data    121507017                       # number of demand (read+write) accesses
system.cpu0.dcache.demand_accesses::total    121507017                       # number of demand (read+write) accesses
system.cpu0.dcache.overall_accesses::cpu0.data    121507017                       # number of overall (read+write) accesses
system.cpu0.dcache.overall_accesses::total    121507017                       # number of overall (read+write) accesses
system.cpu0.dcache.ReadReq_miss_rate::cpu0.data     0.000223                       # miss rate for ReadReq accesses
system.cpu0.dcache.ReadReq_miss_rate::total     0.000223                       # miss rate for ReadReq accesses
system.cpu0.dcache.WriteReq_miss_rate::cpu0.data     0.000388                       # miss rate for WriteReq accesses
system.cpu0.dcache.WriteReq_miss_rate::total     0.000388                       # miss rate for WriteReq accesses
system.cpu0.dcache.LoadLockedReq_miss_rate::cpu0.data     0.002377                       # miss rate for LoadLockedReq accesses
system.cpu0.dcache.LoadLockedReq_miss_rate::total     0.002377                       # miss rate for LoadLockedReq accesses
system.cpu0.dcache.demand_miss_rate::cpu0.data     0.000292                       # miss rate for demand accesses
system.cpu0.dcache.demand_miss_rate::total     0.000292                       # miss rate for demand accesses
system.cpu0.dcache.overall_miss_rate::cpu0.data     0.000292                       # miss rate for overall accesses
system.cpu0.dcache.overall_miss_rate::total     0.000292                       # miss rate for overall accesses
system.cpu0.dcache.ReadReq_avg_miss_latency::cpu0.data 20233.996429                       # average ReadReq miss latency
system.cpu0.dcache.ReadReq_avg_miss_latency::total 20233.996429                       # average ReadReq miss latency
system.cpu0.dcache.WriteReq_avg_miss_latency::cpu0.data 33068.262521                       # average WriteReq miss latency
system.cpu0.dcache.WriteReq_avg_miss_latency::total 33068.262521                       # average WriteReq miss latency
system.cpu0.dcache.LoadLockedReq_avg_miss_latency::cpu0.data 16758.241758                       # average LoadLockedReq miss latency
system.cpu0.dcache.LoadLockedReq_avg_miss_latency::total 16758.241758                       # average LoadLockedReq miss latency
system.cpu0.dcache.demand_avg_miss_latency::cpu0.data 27399.804033                       # average overall miss latency
system.cpu0.dcache.demand_avg_miss_latency::total 27399.804033                       # average overall miss latency
system.cpu0.dcache.overall_avg_miss_latency::cpu0.data 27399.804033                       # average overall miss latency
system.cpu0.dcache.overall_avg_miss_latency::total 27399.804033                       # average overall miss latency
system.cpu0.dcache.blocked_cycles::no_mshrs        17239                       # number of cycles access was blocked
system.cpu0.dcache.blocked_cycles::no_targets            0                       # number of cycles access was blocked
system.cpu0.dcache.blocked::no_mshrs             1108                       # number of cycles access was blocked
system.cpu0.dcache.blocked::no_targets              0                       # number of cycles access was blocked
system.cpu0.dcache.avg_blocked_cycles::no_mshrs    15.558664                       # average number of cycles each access was blocked
system.cpu0.dcache.avg_blocked_cycles::no_targets          nan                       # average number of cycles each access was blocked
system.cpu0.dcache.writebacks::writebacks        14541                       # number of writebacks
system.cpu0.dcache.writebacks::total            14541                       # number of writebacks
system.cpu0.dcache.ReadReq_mshr_hits::cpu0.data         5873                       # number of ReadReq MSHR hits
system.cpu0.dcache.ReadReq_mshr_hits::total         5873                       # number of ReadReq MSHR hits
system.cpu0.dcache.WriteReq_mshr_hits::cpu0.data         7760                       # number of WriteReq MSHR hits
system.cpu0.dcache.WriteReq_mshr_hits::total         7760                       # number of WriteReq MSHR hits
system.cpu0.dcache.LoadLockedReq_mshr_hits::cpu0.data           80                       # number of LoadLockedReq MSHR hits
system.cpu0.dcache.LoadLockedReq_mshr_hits::total           80                       # number of LoadLockedReq MSHR hits
system.cpu0.dcache.demand_mshr_hits::cpu0.data        13633                       # number of demand (read+write) MSHR hits
system.cpu0.dcache.demand_mshr_hits::total        13633                       # number of demand (read+write) MSHR hits
system.cpu0.dcache.overall_mshr_hits::cpu0.data        13633                       # number of overall MSHR hits
system.cpu0.dcache.overall_mshr_hits::total        13633                       # number of overall MSHR hits
system.cpu0.dcache.ReadReq_mshr_misses::cpu0.data         9811                       # number of ReadReq MSHR misses
system.cpu0.dcache.ReadReq_mshr_misses::total         9811                       # number of ReadReq MSHR misses
system.cpu0.dcache.WriteReq_mshr_misses::cpu0.data        12067                       # number of WriteReq MSHR misses
system.cpu0.dcache.WriteReq_mshr_misses::total        12067                       # number of WriteReq MSHR misses
system.cpu0.dcache.LoadLockedReq_mshr_misses::cpu0.data           11                       # number of LoadLockedReq MSHR misses
system.cpu0.dcache.LoadLockedReq_mshr_misses::total           11                       # number of LoadLockedReq MSHR misses
system.cpu0.dcache.demand_mshr_misses::cpu0.data        21878                       # number of demand (read+write) MSHR misses
system.cpu0.dcache.demand_mshr_misses::total        21878                       # number of demand (read+write) MSHR misses
system.cpu0.dcache.overall_mshr_misses::cpu0.data        21878                       # number of overall MSHR misses
system.cpu0.dcache.overall_mshr_misses::total        21878                       # number of overall MSHR misses
system.cpu0.dcache.ReadReq_mshr_miss_latency::cpu0.data    170789500                       # number of ReadReq MSHR miss cycles
system.cpu0.dcache.ReadReq_mshr_miss_latency::total    170789500                       # number of ReadReq MSHR miss cycles
system.cpu0.dcache.WriteReq_mshr_miss_latency::cpu0.data    343341197                       # number of WriteReq MSHR miss cycles
system.cpu0.dcache.WriteReq_mshr_miss_latency::total    343341197                       # number of WriteReq MSHR miss cycles
system.cpu0.dcache.LoadLockedReq_mshr_miss_latency::cpu0.data       245000                       # number of LoadLockedReq MSHR miss cycles
system.cpu0.dcache.LoadLockedReq_mshr_miss_latency::total       245000                       # number of LoadLockedReq MSHR miss cycles
system.cpu0.dcache.demand_mshr_miss_latency::cpu0.data    514130697                       # number of demand (read+write) MSHR miss cycles
system.cpu0.dcache.demand_mshr_miss_latency::total    514130697                       # number of demand (read+write) MSHR miss cycles
system.cpu0.dcache.overall_mshr_miss_latency::cpu0.data    514130697                       # number of overall MSHR miss cycles
system.cpu0.dcache.overall_mshr_miss_latency::total    514130697                       # number of overall MSHR miss cycles
system.cpu0.dcache.ReadReq_mshr_miss_rate::cpu0.data     0.000139                       # mshr miss rate for ReadReq accesses
system.cpu0.dcache.ReadReq_mshr_miss_rate::total     0.000139                       # mshr miss rate for ReadReq accesses
system.cpu0.dcache.WriteReq_mshr_miss_rate::cpu0.data     0.000236                       # mshr miss rate for WriteReq accesses
system.cpu0.dcache.WriteReq_mshr_miss_rate::total     0.000236                       # mshr miss rate for WriteReq accesses
system.cpu0.dcache.LoadLockedReq_mshr_miss_rate::cpu0.data     0.000287                       # mshr miss rate for LoadLockedReq accesses
system.cpu0.dcache.LoadLockedReq_mshr_miss_rate::total     0.000287                       # mshr miss rate for LoadLockedReq accesses
system.cpu0.dcache.demand_mshr_miss_rate::cpu0.data     0.000180                       # mshr miss rate for demand accesses
system.cpu0.dcache.demand_mshr_miss_rate::total     0.000180                       # mshr miss rate for demand accesses
system.cpu0.dcache.overall_mshr_miss_rate::cpu0.data     0.000180                       # mshr miss rate for overall accesses
system.cpu0.dcache.overall_mshr_miss_rate::total     0.000180                       # mshr miss rate for overall accesses
system.cpu0.dcache.ReadReq_avg_mshr_miss_latency::cpu0.data 17407.960453                       # average ReadReq mshr miss latency
system.cpu0.dcache.ReadReq_avg_mshr_miss_latency::total 17407.960453                       # average ReadReq mshr miss latency
system.cpu0.dcache.WriteReq_avg_mshr_miss_latency::cpu0.data 28452.904367                       # average WriteReq mshr miss latency
system.cpu0.dcache.WriteReq_avg_mshr_miss_latency::total 28452.904367                       # average WriteReq mshr miss latency
system.cpu0.dcache.LoadLockedReq_avg_mshr_miss_latency::cpu0.data 22272.727273                       # average LoadLockedReq mshr miss latency
system.cpu0.dcache.LoadLockedReq_avg_mshr_miss_latency::total 22272.727273                       # average LoadLockedReq mshr miss latency
system.cpu0.dcache.demand_avg_mshr_miss_latency::cpu0.data 23499.894734                       # average overall mshr miss latency
system.cpu0.dcache.demand_avg_mshr_miss_latency::total 23499.894734                       # average overall mshr miss latency
system.cpu0.dcache.overall_avg_mshr_miss_latency::cpu0.data 23499.894734                       # average overall mshr miss latency
system.cpu0.dcache.overall_avg_mshr_miss_latency::total 23499.894734                       # average overall mshr miss latency
system.cpu0.icache.tags.pwrStateResidencyTicks::UNDEFINED 550038142000                       # Cumulative time (in ticks) in various power states
system.cpu0.icache.tags.replacements           776656                       # number of replacements
system.cpu0.icache.tags.tagsinuse          255.994911                       # Cycle average of tags in use
system.cpu0.icache.tags.total_refs           92327199                       # Total number of references to valid blocks.
system.cpu0.icache.tags.sampled_refs           776912                       # Sample count of references to valid blocks.
system.cpu0.icache.tags.avg_refs           118.838683                       # Average number of references to valid blocks.
system.cpu0.icache.tags.warmup_cycle         43061500                       # Cycle when the warmup percentage was hit.
system.cpu0.icache.tags.occ_blocks::cpu0.inst   255.994911                       # Average occupied blocks per requestor
system.cpu0.icache.tags.occ_percent::cpu0.inst     0.999980                       # Average percentage of cache occupancy
system.cpu0.icache.tags.occ_percent::total     0.999980                       # Average percentage of cache occupancy
system.cpu0.icache.tags.occ_task_id_blocks::1024          256                       # Occupied blocks per task id
system.cpu0.icache.tags.age_task_id_blocks_1024::0           98                       # Occupied blocks per task id
system.cpu0.icache.tags.age_task_id_blocks_1024::1          132                       # Occupied blocks per task id
system.cpu0.icache.tags.age_task_id_blocks_1024::2           23                       # Occupied blocks per task id
system.cpu0.icache.tags.age_task_id_blocks_1024::4            3                       # Occupied blocks per task id
system.cpu0.icache.tags.occ_task_id_percent::1024            1                       # Percentage of cache occupancy per task id
system.cpu0.icache.tags.tag_accesses        373217352                       # Number of tag accesses
system.cpu0.icache.tags.data_accesses       373217352                       # Number of data accesses
system.cpu0.icache.pwrStateResidencyTicks::UNDEFINED 550038142000                       # Cumulative time (in ticks) in various power states
system.cpu0.icache.ReadReq_hits::cpu0.inst     92327199                       # number of ReadReq hits
system.cpu0.icache.ReadReq_hits::total       92327199                       # number of ReadReq hits
system.cpu0.icache.demand_hits::cpu0.inst     92327199                       # number of demand (read+write) hits
system.cpu0.icache.demand_hits::total        92327199                       # number of demand (read+write) hits
system.cpu0.icache.overall_hits::cpu0.inst     92327199                       # number of overall hits
system.cpu0.icache.overall_hits::total       92327199                       # number of overall hits
system.cpu0.icache.ReadReq_misses::cpu0.inst       782911                       # number of ReadReq misses
system.cpu0.icache.ReadReq_misses::total       782911                       # number of ReadReq misses
system.cpu0.icache.demand_misses::cpu0.inst       782911                       # number of demand (read+write) misses
system.cpu0.icache.demand_misses::total        782911                       # number of demand (read+write) misses
system.cpu0.icache.overall_misses::cpu0.inst       782911                       # number of overall misses
system.cpu0.icache.overall_misses::total       782911                       # number of overall misses
system.cpu0.icache.ReadReq_miss_latency::cpu0.inst  11831037000                       # number of ReadReq miss cycles
system.cpu0.icache.ReadReq_miss_latency::total  11831037000                       # number of ReadReq miss cycles
system.cpu0.icache.demand_miss_latency::cpu0.inst  11831037000                       # number of demand (read+write) miss cycles
system.cpu0.icache.demand_miss_latency::total  11831037000                       # number of demand (read+write) miss cycles
system.cpu0.icache.overall_miss_latency::cpu0.inst  11831037000                       # number of overall miss cycles
system.cpu0.icache.overall_miss_latency::total  11831037000                       # number of overall miss cycles
system.cpu0.icache.ReadReq_accesses::cpu0.inst     93110110                       # number of ReadReq accesses(hits+misses)
system.cpu0.icache.ReadReq_accesses::total     93110110                       # number of ReadReq accesses(hits+misses)
system.cpu0.icache.demand_accesses::cpu0.inst     93110110                       # number of demand (read+write) accesses
system.cpu0.icache.demand_accesses::total     93110110                       # number of demand (read+write) accesses
system.cpu0.icache.overall_accesses::cpu0.inst     93110110                       # number of overall (read+write) accesses
system.cpu0.icache.overall_accesses::total     93110110                       # number of overall (read+write) accesses
system.cpu0.icache.ReadReq_miss_rate::cpu0.inst     0.008408                       # miss rate for ReadReq accesses
system.cpu0.icache.ReadReq_miss_rate::total     0.008408                       # miss rate for ReadReq accesses
system.cpu0.icache.demand_miss_rate::cpu0.inst     0.008408                       # miss rate for demand accesses
system.cpu0.icache.demand_miss_rate::total     0.008408                       # miss rate for demand accesses
system.cpu0.icache.overall_miss_rate::cpu0.inst     0.008408                       # miss rate for overall accesses
system.cpu0.icache.overall_miss_rate::total     0.008408                       # miss rate for overall accesses
system.cpu0.icache.ReadReq_avg_miss_latency::cpu0.inst 15111.598892                       # average ReadReq miss latency
system.cpu0.icache.ReadReq_avg_miss_latency::total 15111.598892                       # average ReadReq miss latency
system.cpu0.icache.demand_avg_miss_latency::cpu0.inst 15111.598892                       # average overall miss latency
system.cpu0.icache.demand_avg_miss_latency::total 15111.598892                       # average overall miss latency
system.cpu0.icache.overall_avg_miss_latency::cpu0.inst 15111.598892                       # average overall miss latency
system.cpu0.icache.overall_avg_miss_latency::total 15111.598892                       # average overall miss latency
system.cpu0.icache.blocked_cycles::no_mshrs           83                       # number of cycles access was blocked
system.cpu0.icache.blocked_cycles::no_targets            0                       # number of cycles access was blocked
system.cpu0.icache.blocked::no_mshrs                5                       # number of cycles access was blocked
system.cpu0.icache.blocked::no_targets              0                       # number of cycles access was blocked
system.cpu0.icache.avg_blocked_cycles::no_mshrs    16.600000                       # average number of cycles each access was blocked
system.cpu0.icache.avg_blocked_cycles::no_targets          nan                       # average number of cycles each access was blocked
system.cpu0.icache.writebacks::writebacks       776656                       # number of writebacks
system.cpu0.icache.writebacks::total           776656                       # number of writebacks
system.cpu0.icache.ReadReq_mshr_hits::cpu0.inst         5999                       # number of ReadReq MSHR hits
system.cpu0.icache.ReadReq_mshr_hits::total         5999                       # number of ReadReq MSHR hits
system.cpu0.icache.demand_mshr_hits::cpu0.inst         5999                       # number of demand (read+write) MSHR hits
system.cpu0.icache.demand_mshr_hits::total         5999                       # number of demand (read+write) MSHR hits
system.cpu0.icache.overall_mshr_hits::cpu0.inst         5999                       # number of overall MSHR hits
system.cpu0.icache.overall_mshr_hits::total         5999                       # number of overall MSHR hits
system.cpu0.icache.ReadReq_mshr_misses::cpu0.inst       776912                       # number of ReadReq MSHR misses
system.cpu0.icache.ReadReq_mshr_misses::total       776912                       # number of ReadReq MSHR misses
system.cpu0.icache.demand_mshr_misses::cpu0.inst       776912                       # number of demand (read+write) MSHR misses
system.cpu0.icache.demand_mshr_misses::total       776912                       # number of demand (read+write) MSHR misses
[...]
system.l2.demand_miss_rate::cpu0.data        0.203618                       # miss rate for demand accesses
system.l2.demand_miss_rate::total            0.007883                       # miss rate for demand accesses
system.l2.overall_miss_rate::cpu0.inst       0.002368                       # miss rate for overall accesses
system.l2.overall_miss_rate::cpu0.data       0.203618                       # miss rate for overall accesses
system.l2.overall_miss_rate::total           0.007883                       # miss rate for overall accesses
system.l2.ReadExReq_avg_miss_latency::cpu0.data 61586.998351                       # average ReadExReq miss latency
system.l2.ReadExReq_avg_miss_latency::total 61586.998351                       # average ReadExReq miss latency
system.l2.ReadCleanReq_avg_miss_latency::cpu0.inst 61180.434783                       # average ReadCleanReq miss latency
system.l2.ReadCleanReq_avg_miss_latency::total 61180.434783                       # average ReadCleanReq miss latency
system.l2.ReadSharedReq_avg_miss_latency::cpu0.data 61300.976801                       # average ReadSharedReq miss latency
system.l2.ReadSharedReq_avg_miss_latency::total 61300.976801                       # average ReadSharedReq miss latency
system.l2.demand_avg_miss_latency::cpu0.inst 61180.434783                       # average overall miss latency
system.l2.demand_avg_miss_latency::cpu0.data 61534.440206                       # average overall miss latency
system.l2.demand_avg_miss_latency::total 61430.998888                       # average overall miss latency
system.l2.overall_avg_miss_latency::cpu0.inst 61180.434783                       # average overall miss latency
system.l2.overall_avg_miss_latency::cpu0.data 61534.440206                       # average overall miss latency
system.l2.overall_avg_miss_latency::total 61430.998888                       # average overall miss latency
system.l2.blocked_cycles::no_mshrs                  0                       # number of cycles access was blocked
system.l2.blocked_cycles::no_targets                0                       # number of cycles access was blocked
system.l2.blocked::no_mshrs                         0                       # number of cycles access was blocked
system.l2.blocked::no_targets                       0                       # number of cycles access was blocked
system.l2.avg_blocked_cycles::no_mshrs            nan                       # average number of cycles each access was blocked
system.l2.avg_blocked_cycles::no_targets          nan                       # average number of cycles each access was blocked
system.l2.writebacks::writebacks                 1231                       # number of writebacks
system.l2.writebacks::total                      1231                       # number of writebacks
system.l2.ReadCleanReq_mshr_hits::cpu0.inst            6                       # number of ReadCleanReq MSHR hits
system.l2.ReadCleanReq_mshr_hits::total             6                       # number of ReadCleanReq MSHR hits
system.l2.ReadSharedReq_mshr_hits::cpu0.data           20                       # number of ReadSharedReq MSHR hits
system.l2.ReadSharedReq_mshr_hits::total           20                       # number of ReadSharedReq MSHR hits
system.l2.demand_mshr_hits::cpu0.inst               6                       # number of demand (read+write) MSHR hits
system.l2.demand_mshr_hits::cpu0.data              20                       # number of demand (read+write) MSHR hits
system.l2.demand_mshr_hits::total                  26                       # number of demand (read+write) MSHR hits
system.l2.overall_mshr_hits::cpu0.inst              6                       # number of overall MSHR hits
system.l2.overall_mshr_hits::cpu0.data             20                       # number of overall MSHR hits
system.l2.overall_mshr_hits::total                 26                       # number of overall MSHR hits
system.l2.ReadExReq_mshr_misses::cpu0.data         3638                       # number of ReadExReq MSHR misses
system.l2.ReadExReq_mshr_misses::total           3638                       # number of ReadExReq MSHR misses
system.l2.ReadCleanReq_mshr_misses::cpu0.inst         1834                       # number of ReadCleanReq MSHR misses
system.l2.ReadCleanReq_mshr_misses::total         1834                       # number of ReadCleanReq MSHR misses
system.l2.ReadSharedReq_mshr_misses::cpu0.data          799                       # number of ReadSharedReq MSHR misses
system.l2.ReadSharedReq_mshr_misses::total          799                       # number of ReadSharedReq MSHR misses
system.l2.demand_mshr_misses::cpu0.inst          1834                       # number of demand (read+write) MSHR misses
system.l2.demand_mshr_misses::cpu0.data          4437                       # number of demand (read+write) MSHR misses
system.l2.demand_mshr_misses::total              6271                       # number of demand (read+write) MSHR misses
system.l2.overall_mshr_misses::cpu0.inst         1834                       # number of overall MSHR misses
system.l2.overall_mshr_misses::cpu0.data         4437                       # number of overall MSHR misses
system.l2.overall_mshr_misses::total             6271                       # number of overall MSHR misses
system.l2.ReadExReq_mshr_miss_latency::cpu0.data    187673500                       # number of ReadExReq MSHR miss cycles
system.l2.ReadExReq_mshr_miss_latency::total    187673500                       # number of ReadExReq MSHR miss cycles
system.l2.ReadCleanReq_mshr_miss_latency::cpu0.inst     93887000                       # number of ReadCleanReq MSHR miss cycles
system.l2.ReadCleanReq_mshr_miss_latency::total     93887000                       # number of ReadCleanReq MSHR miss cycles
system.l2.ReadSharedReq_mshr_miss_latency::cpu0.data     41127500                       # number of ReadSharedReq MSHR miss cycles
system.l2.ReadSharedReq_mshr_miss_latency::total     41127500                       # number of ReadSharedReq MSHR miss cycles
system.l2.demand_mshr_miss_latency::cpu0.inst     93887000                       # number of demand (read+write) MSHR miss cycles
system.l2.demand_mshr_miss_latency::cpu0.data    228801000                       # number of demand (read+write) MSHR miss cycles
system.l2.demand_mshr_miss_latency::total    322688000                       # number of demand (read+write) MSHR miss cycles
system.l2.overall_mshr_miss_latency::cpu0.inst     93887000                       # number of overall MSHR miss cycles
system.l2.overall_mshr_miss_latency::cpu0.data    228801000                       # number of overall MSHR miss cycles
system.l2.overall_mshr_miss_latency::total    322688000                       # number of overall MSHR miss cycles
system.l2.ReadExReq_mshr_miss_rate::cpu0.data     0.301458                       # mshr miss rate for ReadExReq accesses
system.l2.ReadExReq_mshr_miss_rate::total     0.301458                       # mshr miss rate for ReadExReq accesses
system.l2.ReadCleanReq_mshr_miss_rate::cpu0.inst     0.002361                       # mshr miss rate for ReadCleanReq accesses
system.l2.ReadCleanReq_mshr_miss_rate::total     0.002361                       # mshr miss rate for ReadCleanReq accesses
system.l2.ReadSharedReq_mshr_miss_rate::cpu0.data     0.081356                       # mshr miss rate for ReadSharedReq accesses
system.l2.ReadSharedReq_mshr_miss_rate::total     0.081356                       # mshr miss rate for ReadSharedReq accesses
system.l2.demand_mshr_miss_rate::cpu0.inst     0.002361                       # mshr miss rate for demand accesses
system.l2.demand_mshr_miss_rate::cpu0.data     0.202705                       # mshr miss rate for demand accesses
system.l2.demand_mshr_miss_rate::total       0.007851                       # mshr miss rate for demand accesses
system.l2.overall_mshr_miss_rate::cpu0.inst     0.002361                       # mshr miss rate for overall accesses
system.l2.overall_mshr_miss_rate::cpu0.data     0.202705                       # mshr miss rate for overall accesses
system.l2.overall_mshr_miss_rate::total      0.007851                       # mshr miss rate for overall accesses
system.l2.ReadExReq_avg_mshr_miss_latency::cpu0.data 51586.998351                       # average ReadExReq mshr miss latency
system.l2.ReadExReq_avg_mshr_miss_latency::total 51586.998351                       # average ReadExReq mshr miss latency
system.l2.ReadCleanReq_avg_mshr_miss_latency::cpu0.inst 51192.475463                       # average ReadCleanReq mshr miss latency
system.l2.ReadCleanReq_avg_mshr_miss_latency::total 51192.475463                       # average ReadCleanReq mshr miss latency
system.l2.ReadSharedReq_avg_mshr_miss_latency::cpu0.data 51473.717146                       # average ReadSharedReq mshr miss latency
system.l2.ReadSharedReq_avg_mshr_miss_latency::total 51473.717146                       # average ReadSharedReq mshr miss latency
system.l2.demand_avg_mshr_miss_latency::cpu0.inst 51192.475463                       # average overall mshr miss latency
system.l2.demand_avg_mshr_miss_latency::cpu0.data 51566.599053                       # average overall mshr miss latency
system.l2.demand_avg_mshr_miss_latency::total 51457.183862                       # average overall mshr miss latency
system.l2.overall_avg_mshr_miss_latency::cpu0.inst 51192.475463                       # average overall mshr miss latency
system.l2.overall_avg_mshr_miss_latency::cpu0.data 51566.599053                       # average overall mshr miss latency
system.l2.overall_avg_mshr_miss_latency::total 51457.183862                       # average overall mshr miss latency
system.membus.snoop_filter.tot_requests          9219                       # Total number of requests made to the snoop filter.
system.membus.snoop_filter.hit_single_requests         2228                       # Number of requests hitting in the snoop filter with a single holder of the requested data.
system.membus.snoop_filter.hit_multi_requests            0                       # Number of requests hitting in the snoop filter with multiple (>1) holders of the requested data.
system.membus.snoop_filter.tot_snoops               0                       # Total number of snoops made to the snoop filter.
system.membus.snoop_filter.hit_single_snoops            0                       # Number of snoops hitting in the snoop filter with a single holder of the requested data.
system.membus.snoop_filter.hit_multi_snoops            0                       # Number of snoops hitting in the snoop filter with multiple (>1) holders of the requested data.
system.membus.pwrStateResidencyTicks::UNDEFINED 550038142000                       # Cumulative time (in ticks) in various power states
system.membus.trans_dist::ReadResp               2633                       # Transaction distribution
system.membus.trans_dist::WritebackDirty         1231                       # Transaction distribution
system.membus.trans_dist::CleanEvict              934                       # Transaction distribution
system.membus.trans_dist::ReadExReq              3638                       # Transaction distribution
system.membus.trans_dist::ReadExResp             3638                       # Transaction distribution
system.membus.trans_dist::ReadSharedReq          2633                       # Transaction distribution
system.membus.pkt_count_system.l2.mem_side::system.physmem.port        14707                       # Packet count per connected master and slave (bytes)
system.membus.pkt_count::total                  14707                       # Packet count per connected master and slave (bytes)
system.membus.pkt_size_system.l2.mem_side::system.physmem.port       480128                       # Cumulative packet size per connected master and slave (bytes)
system.membus.pkt_size::total                  480128                       # Cumulative packet size per connected master and slave (bytes)
system.membus.snoops                                0                       # Total snoops (count)
system.membus.snoopTraffic                          0                       # Total snoop traffic (bytes)
system.membus.snoop_fanout::samples              6991                       # Request fanout histogram
system.membus.snoop_fanout::mean                    0                       # Request fanout histogram
system.membus.snoop_fanout::stdev                   0                       # Request fanout histogram
system.membus.snoop_fanout::underflows              0      0.00%      0.00% # Request fanout histogram
system.membus.snoop_fanout::0                    6991    100.00%    100.00% # Request fanout histogram
system.membus.snoop_fanout::1                       0      0.00%    100.00% # Request fanout histogram
system.membus.snoop_fanout::overflows               0      0.00%    100.00% # Request fanout histogram
system.membus.snoop_fanout::min_value               0                       # Request fanout histogram
system.membus.snoop_fanout::max_value               0                       # Request fanout histogram
system.membus.snoop_fanout::total                6991                       # Request fanout histogram
system.membus.reqLayer0.occupancy            17387308                       # Layer occupancy (ticks)
system.membus.reqLayer0.utilization               0.0                       # Layer utilization (%)
system.membus.respLayer1.occupancy           31355000                       # Layer occupancy (ticks)
system.membus.respLayer1.utilization              0.0                       # Layer utilization (%)
system.tol2bus.snoop_filter.tot_requests      1597090                       # Total number of requests made to the snoop filter.
system.tol2bus.snoop_filter.hit_single_requests       798307                       # Number of requests hitting in the snoop filter with a single holder of the requested data.
system.tol2bus.snoop_filter.hit_multi_requests        16011                       # Number of requests hitting in the snoop filter with multiple (>1) holders of the requested data.
system.tol2bus.snoop_filter.tot_snoops             15                       # Total number of snoops made to the snoop filter.
system.tol2bus.snoop_filter.hit_single_snoops           15                       # Number of snoops hitting in the snoop filter with a single holder of the requested data.
system.tol2bus.snoop_filter.hit_multi_snoops            0                       # Number of snoops hitting in the snoop filter with multiple (>1) holders of the requested data.
system.tol2bus.pwrStateResidencyTicks::UNDEFINED 550038142000                       # Cumulative time (in ticks) in various power states
system.tol2bus.trans_dist::ReadResp            786733                       # Transaction distribution
system.tol2bus.trans_dist::WritebackDirty        15772                       # Transaction distribution
system.tol2bus.trans_dist::WritebackClean       776656                       # Transaction distribution
system.tol2bus.trans_dist::CleanEvict            8041                       # Transaction distribution
system.tol2bus.trans_dist::ReadExReq            12068                       # Transaction distribution
system.tol2bus.trans_dist::ReadExResp           12068                       # Transaction distribution
system.tol2bus.trans_dist::ReadCleanReq        776912                       # Transaction distribution
system.tol2bus.trans_dist::ReadSharedReq         9821                       # Transaction distribution
system.tol2bus.pkt_count_system.cpu0.icache.mem_side::system.l2.cpu_side      2330480                       # Packet count per connected master and slave (bytes)
system.tol2bus.pkt_count_system.cpu0.dcache.mem_side::system.l2.cpu_side        65411                       # Packet count per connected master and slave (bytes)
system.tol2bus.pkt_count::total               2395891                       # Packet count per connected master and slave (bytes)
system.tol2bus.pkt_size_system.cpu0.icache.mem_side::system.l2.cpu_side     99428352                       # Cumulative packet size per connected master and slave (bytes)
system.tol2bus.pkt_size_system.cpu0.dcache.mem_side::system.l2.cpu_side      2331520                       # Cumulative packet size per connected master and slave (bytes)
system.tol2bus.pkt_size::total              101759872                       # Cumulative packet size per connected master and slave (bytes)
system.tol2bus.snoops                            2180                       # Total snoops (count)
system.tol2bus.snoopTraffic                     78784                       # Total snoop traffic (bytes)
system.tol2bus.snoop_fanout::samples           800981                       # Request fanout histogram
system.tol2bus.snoop_fanout::mean            0.020030                       # Request fanout histogram
system.tol2bus.snoop_fanout::stdev           0.140104                       # Request fanout histogram
system.tol2bus.snoop_fanout::underflows             0      0.00%      0.00% # Request fanout histogram
system.tol2bus.snoop_fanout::0                 784937     98.00%     98.00% # Request fanout histogram
system.tol2bus.snoop_fanout::1                  16044      2.00%    100.00% # Request fanout histogram
system.tol2bus.snoop_fanout::2                      0      0.00%    100.00% # Request fanout histogram
system.tol2bus.snoop_fanout::3                      0      0.00%    100.00% # Request fanout histogram
system.tol2bus.snoop_fanout::4                      0      0.00%    100.00% # Request fanout histogram
system.tol2bus.snoop_fanout::5                      0      0.00%    100.00% # Request fanout histogram
system.tol2bus.snoop_fanout::6                      0      0.00%    100.00% # Request fanout histogram
system.tol2bus.snoop_fanout::7                      0      0.00%    100.00% # Request fanout histogram
system.tol2bus.snoop_fanout::8                      0      0.00%    100.00% # Request fanout histogram
system.tol2bus.snoop_fanout::9                      0      0.00%    100.00% # Request fanout histogram
system.tol2bus.snoop_fanout::10                     0      0.00%    100.00% # Request fanout histogram
system.tol2bus.snoop_fanout::11                     0      0.00%    100.00% # Request fanout histogram
system.tol2bus.snoop_fanout::12                     0      0.00%    100.00% # Request fanout histogram
system.tol2bus.snoop_fanout::13                     0      0.00%    100.00% # Request fanout histogram
system.tol2bus.snoop_fanout::14                     0      0.00%    100.00% # Request fanout histogram
system.tol2bus.snoop_fanout::15                     0      0.00%    100.00% # Request fanout histogram
system.tol2bus.snoop_fanout::16                     0      0.00%    100.00% # Request fanout histogram
system.tol2bus.snoop_fanout::overflows              0      0.00%    100.00% # Request fanout histogram
system.tol2bus.snoop_fanout::min_value              0                       # Request fanout histogram
system.tol2bus.snoop_fanout::max_value              1                       # Request fanout histogram
system.tol2bus.snoop_fanout::total             800981                       # Request fanout histogram
system.tol2bus.reqLayer0.occupancy         1589742000                       # Layer occupancy (ticks)
system.tol2bus.reqLayer0.utilization              0.3                       # Layer utilization (%)
system.tol2bus.respLayer0.occupancy        1165398938                       # Layer occupancy (ticks)
system.tol2bus.respLayer0.utilization             0.2                       # Layer utilization (%)
system.tol2bus.respLayer1.occupancy          32858450                       # Layer occupancy (ticks)
system.tol2bus.respLayer1.utilization             0.0                       # Layer utilization (%)

---------- End Simulation Statistics   ----------
