
---------- Begin Simulation Statistics ----------
sim_seconds                                  0.157607                       # Number of seconds simulated
sim_ticks                                157606736000                       # Number of ticks simulated
final_tick                               157606736000                       # Number of ticks from beginning of simulation (restored from checkpoints and never reset)
sim_freq                                 1000000000000                       # Frequency of simulated ticks
host_inst_rate                                 228227                       # Simulator instruction rate (inst/s)
host_op_rate                                   256735                       # Simulator op (including micro ops) rate (op/s)
host_tick_rate                               60331390                       # Simulator tick rate (ticks/s)
host_mem_usage                                 724624                       # Number of bytes of host memory used
host_seconds                                  2612.35                       # Real time elapsed on the host
sim_insts                                   596209430                       # Number of instructions simulated
sim_ops                                     670681206                       # Number of ops (including micro ops) simulated
system.voltage_domain.voltage                       1                       # Voltage in Volts
system.clk_domain.clock                          1000                       # Clock period in ticks
system.physmem.pwrStateResidencyTicks::UNDEFINED 157606736000                       # Cumulative time (in ticks) in various power states
system.physmem.bytes_read::cpu0.inst           387776                       # Number of bytes read from this memory
system.physmem.bytes_read::cpu0.data           210240                       # Number of bytes read from this memory
system.physmem.bytes_read::cpu1.inst            54528                       # Number of bytes read from this memory
system.physmem.bytes_read::cpu1.data           119936                       # Number of bytes read from this memory
system.physmem.bytes_read::cpu2.inst            77952                       # Number of bytes read from this memory
system.physmem.bytes_read::cpu2.data           123584                       # Number of bytes read from this memory
system.physmem.bytes_read::cpu3.inst            66688                       # Number of bytes read from this memory
system.physmem.bytes_read::cpu3.data           104064                       # Number of bytes read from this memory
system.physmem.bytes_read::total              1144768                       # Number of bytes read from this memory
system.physmem.bytes_inst_read::cpu0.inst       387776                       # Number of instructions bytes read from this memory
system.physmem.bytes_inst_read::cpu1.inst        54528                       # Number of instructions bytes read from this memory
system.physmem.bytes_inst_read::cpu2.inst        77952                       # Number of instructions bytes read from this memory
system.physmem.bytes_inst_read::cpu3.inst        66688                       # Number of instructions bytes read from this memory
system.physmem.bytes_inst_read::total          586944                       # Number of instructions bytes read from this memory
system.physmem.bytes_written::writebacks       320256                       # Number of bytes written to this memory
system.physmem.bytes_written::total            320256                       # Number of bytes written to this memory
system.physmem.num_reads::cpu0.inst              6059                       # Number of read requests responded to by this memory
system.physmem.num_reads::cpu0.data              3285                       # Number of read requests responded to by this memory
system.physmem.num_reads::cpu1.inst               852                       # Number of read requests responded to by this memory
system.physmem.num_reads::cpu1.data              1874                       # Number of read requests responded to by this memory
system.physmem.num_reads::cpu2.inst              1218                       # Number of read requests responded to by this memory
system.physmem.num_reads::cpu2.data              1931                       # Number of read requests responded to by this memory
system.physmem.num_reads::cpu3.inst              1042                       # Number of read requests responded to by this memory
system.physmem.num_reads::cpu3.data              1626                       # Number of read requests responded to by this memory
system.physmem.num_reads::total                 17887                       # Number of read requests responded to by this memory
system.physmem.num_writes::writebacks            5004                       # Number of write requests responded to by this memory
system.physmem.num_writes::total                 5004                       # Number of write requests responded to by this memory
system.physmem.bw_read::cpu0.inst             2460402                       # Total read bandwidth from this memory (bytes/s)
system.physmem.bw_read::cpu0.data             1333953                       # Total read bandwidth from this memory (bytes/s)
system.physmem.bw_read::cpu1.inst              345975                       # Total read bandwidth from this memory (bytes/s)
system.physmem.bw_read::cpu1.data              760983                       # Total read bandwidth from this memory (bytes/s)
system.physmem.bw_read::cpu2.inst              494598                       # Total read bandwidth from this memory (bytes/s)
system.physmem.bw_read::cpu2.data              784129                       # Total read bandwidth from this memory (bytes/s)
system.physmem.bw_read::cpu3.inst              423129                       # Total read bandwidth from this memory (bytes/s)
system.physmem.bw_read::cpu3.data              660276                       # Total read bandwidth from this memory (bytes/s)
system.physmem.bw_read::total                 7263446                       # Total read bandwidth from this memory (bytes/s)
system.physmem.bw_inst_read::cpu0.inst        2460402                       # Instruction read bandwidth from this memory (bytes/s)
system.physmem.bw_inst_read::cpu1.inst         345975                       # Instruction read bandwidth from this memory (bytes/s)
system.physmem.bw_inst_read::cpu2.inst         494598                       # Instruction read bandwidth from this memory (bytes/s)
system.physmem.bw_inst_read::cpu3.inst         423129                       # Instruction read bandwidth from this memory (bytes/s)
system.physmem.bw_inst_read::total            3724105                       # Instruction read bandwidth from this memory (bytes/s)
system.physmem.bw_write::writebacks           2031994                       # Write bandwidth from this memory (bytes/s)
system.physmem.bw_write::total                2031994                       # Write bandwidth from this memory (bytes/s)
system.physmem.bw_total::writebacks           2031994                       # Total bandwidth to/from this memory (bytes/s)
system.physmem.bw_total::cpu0.inst            2460402                       # Total bandwidth to/from this memory (bytes/s)
system.physmem.bw_total::cpu0.data            1333953                       # Total bandwidth to/from this memory (bytes/s)
system.physmem.bw_total::cpu1.inst             345975                       # Total bandwidth to/from this memory (bytes/s)
system.physmem.bw_total::cpu1.data             760983                       # Total bandwidth to/from this memory (bytes/s)
system.physmem.bw_total::cpu2.inst             494598                       # Total bandwidth to/from this memory (bytes/s)
system.physmem.bw_total::cpu2.data             784129                       # Total bandwidth to/from this memory (bytes/s)
system.physmem.bw_total::cpu3.inst             423129                       # Total bandwidth to/from this memory (bytes/s)
system.physmem.bw_total::cpu3.data             660276                       # Total bandwidth to/from this memory (bytes/s)
system.physmem.bw_total::total                9295440                       # Total bandwidth to/from this memory (bytes/s)
system.pwrStateResidencyTicks::UNDEFINED 157606736000                       # Cumulative time (in ticks) in various power states
system.cpu0.branchPred.lookups               33237296                       # Number of BP lookups
system.cpu0.branchPred.condPredicted         19824197                       # Number of conditional branches predicted
system.cpu0.branchPred.condIncorrect           784365                       # Number of conditional branches incorrect
system.cpu0.branchPred.BTBLookups            18231359                       # Number of BTB lookups
system.cpu0.branchPred.BTBHits               15702225                       # Number of BTB hits
system.cpu0.branchPred.BTBCorrect                   0                       # Number of correct BTB predictions (this stat may not work properly.
system.cpu0.branchPred.BTBHitPct            86.127562                       # BTB Hit Percentage
system.cpu0.branchPred.usedRAS                4337378                       # Number of times the RAS was used to get a target.
system.cpu0.branchPred.RASInCorrect             78174                       # Number of incorrect RAS predictions.
system.cpu0.branchPred.indirectLookups        1020496                       # Number of indirect predictor lookups.
system.cpu0.branchPred.indirectHits           1013340                       # Number of indirect target hits.
system.cpu0.branchPred.indirectMisses            7156                       # Number of indirect misses.
system.cpu0.branchPredindirectMispredicted        11978                       # Number of mispredicted indirect branches.
system.cpu0.dstage2_mmu.stage2_tlb.walker.pwrStateResidencyTicks::UNDEFINED 157606736000                       # Cumulative time (in ticks) in various power states
system.cpu0.dstage2_mmu.stage2_tlb.walker.walks            0                       # Table walker walks requested
system.cpu0.dstage2_mmu.stage2_tlb.walker.walkRequestOrigin_Requested::Data            0                       # Table walker requests started/completed, data/inst
system.cpu0.dstage2_mmu.stage2_tlb.walker.walkRequestOrigin_Requested::Inst            0                       # Table walker requests started/completed, data/inst
system.cpu0.dstage2_mmu.stage2_tlb.walker.walkRequestOrigin_Requested::total            0                       # Table walker requests started/completed, data/inst
system.cpu0.dstage2_mmu.stage2_tlb.walker.walkRequestOrigin_Completed::Data            0                       # Table walker requests started/completed, data/inst
system.cpu0.dstage2_mmu.stage2_tlb.walker.walkRequestOrigin_Completed::Inst            0                       # Table walker requests started/completed, data/inst
system.cpu0.dstage2_mmu.stage2_tlb.walker.walkRequestOrigin_Completed::total            0                       # Table walker requests started/completed, data/inst
system.cpu0.dstage2_mmu.stage2_tlb.walker.walkRequestOrigin::total            0                       # Table walker requests started/completed, data/inst
system.cpu0.dstage2_mmu.stage2_tlb.inst_hits            0                       # ITB inst hits
system.cpu0.dstage2_mmu.stage2_tlb.inst_misses            0                       # ITB inst misses
system.cpu0.dstage2_mmu.stage2_tlb.read_hits            0                       # DTB read hits
system.cpu0.dstage2_mmu.stage2_tlb.read_misses            0                       # DTB read misses
system.cpu0.dstage2_mmu.stage2_tlb.write_hits            0                       # DTB write hits
system.cpu0.dstage2_mmu.stage2_tlb.write_misses            0                       # DTB write misses
system.cpu0.dstage2_mmu.stage2_tlb.flush_tlb            0                       # Number of times complete TLB was flushed
system.cpu0.dstage2_mmu.stage2_tlb.flush_tlb_mva            0                       # Number of times TLB was flushed by MVA
system.cpu0.dstage2_mmu.stage2_tlb.flush_tlb_mva_asid            0                       # Number of times TLB was flushed by MVA & ASID
system.cpu0.dstage2_mmu.stage2_tlb.flush_tlb_asid            0                       # Number of times TLB was flushed by ASID
system.cpu0.dstage2_mmu.stage2_tlb.flush_entries            0                       # Number of entries that have been flushed from TLB
system.cpu0.dstage2_mmu.stage2_tlb.align_faults            0                       # Number of TLB faults due to alignment restrictions
system.cpu0.dstage2_mmu.stage2_tlb.prefetch_faults            0                       # Number of TLB faults due to prefetch
system.cpu0.dstage2_mmu.stage2_tlb.domain_faults            0                       # Number of TLB faults due to domain restrictions
system.cpu0.dstage2_mmu.stage2_tlb.perms_faults            0                       # Number of TLB faults due to permissions restrictions
system.cpu0.dstage2_mmu.stage2_tlb.read_accesses            0                       # DTB read accesses
system.cpu0.dstage2_mmu.stage2_tlb.write_accesses            0                       # DTB write accesses
system.cpu0.dstage2_mmu.stage2_tlb.inst_accesses            0                       # ITB inst accesses
system.cpu0.dstage2_mmu.stage2_tlb.hits             0                       # DTB hits
system.cpu0.dstage2_mmu.stage2_tlb.misses            0                       # DTB misses
system.cpu0.dstage2_mmu.stage2_tlb.accesses            0                       # DTB accesses
system.cpu0.dtb.walker.pwrStateResidencyTicks::UNDEFINED 157606736000                       # Cumulative time (in ticks) in various power states
system.cpu0.dtb.walker.walks                        0                       # Table walker walks requested
system.cpu0.dtb.walker.walkRequestOrigin_Requested::Data            0                       # Table walker requests started/completed, data/inst
system.cpu0.dtb.walker.walkRequestOrigin_Requested::Inst            0                       # Table walker requests started/completed, data/inst
system.cpu0.dtb.walker.walkRequestOrigin_Requested::total            0                       # Table walker requests started/completed, data/inst
system.cpu0.dtb.walker.walkRequestOrigin_Completed::Data            0                       # Table walker requests started/completed, data/inst
system.cpu0.dtb.walker.walkRequestOrigin_Completed::Inst            0                       # Table walker requests started/completed, data/inst
system.cpu0.dtb.walker.walkRequestOrigin_Completed::total            0                       # Table walker requests started/completed, data/inst
system.cpu0.dtb.walker.walkRequestOrigin::total            0                       # Table walker requests started/completed, data/inst
system.cpu0.dtb.inst_hits                           0                       # ITB inst hits
system.cpu0.dtb.inst_misses                         0                       # ITB inst misses
system.cpu0.dtb.read_hits                           0                       # DTB read hits
system.cpu0.dtb.read_misses                         0                       # DTB read misses
system.cpu0.dtb.write_hits                          0                       # DTB write hits
system.cpu0.dtb.write_misses                        0                       # DTB write misses
system.cpu0.dtb.flush_tlb                           0                       # Number of times complete TLB was flushed
system.cpu0.dtb.flush_tlb_mva                       0                       # Number of times TLB was flushed by MVA
system.cpu0.dtb.flush_tlb_mva_asid                  0                       # Number of times TLB was flushed by MVA & ASID
system.cpu0.dtb.flush_tlb_asid                      0                       # Number of times TLB was flushed by ASID
system.cpu0.dtb.flush_entries                       0                       # Number of entries that have been flushed from TLB
system.cpu0.dtb.align_faults                        0                       # Number of TLB faults due to alignment restrictions
system.cpu0.dtb.prefetch_faults                     0                       # Number of TLB faults due to prefetch
system.cpu0.dtb.domain_faults                       0                       # Number of TLB faults due to domain restrictions
system.cpu0.dtb.perms_faults                        0                       # Number of TLB faults due to permissions restrictions
system.cpu0.dtb.read_accesses                       0                       # DTB read accesses
system.cpu0.dtb.write_accesses                      0                       # DTB write accesses
system.cpu0.dtb.inst_accesses                       0                       # ITB inst accesses
system.cpu0.dtb.hits                                0                       # DTB hits
system.cpu0.dtb.misses                              0                       # DTB misses
system.cpu0.dtb.accesses                            0                       # DTB accesses
system.cpu0.istage2_mmu.stage2_tlb.walker.pwrStateResidencyTicks::UNDEFINED 157606736000                       # Cumulative time (in ticks) in various power states
system.cpu0.istage2_mmu.stage2_tlb.walker.walks            0                       # Table walker walks requested
system.cpu0.istage2_mmu.stage2_tlb.walker.walkRequestOrigin_Requested::Data            0                       # Table walker requests started/completed, data/inst
system.cpu0.istage2_mmu.stage2_tlb.walker.walkRequestOrigin_Requested::Inst            0                       # Table walker requests started/completed, data/inst
system.cpu0.istage2_mmu.stage2_tlb.walker.walkRequestOrigin_Requested::total            0                       # Table walker requests started/completed, data/inst
system.cpu0.istage2_mmu.stage2_tlb.walker.walkRequestOrigin_Completed::Data            0                       # Table walker requests started/completed, data/inst
system.cpu0.istage2_mmu.stage2_tlb.walker.walkRequestOrigin_Completed::Inst            0                       # Table walker requests started/completed, data/inst
system.cpu0.istage2_mmu.stage2_tlb.walker.walkRequestOrigin_Completed::total            0                       # Table walker requests started/completed, data/inst
system.cpu0.istage2_mmu.stage2_tlb.walker.walkRequestOrigin::total            0                       # Table walker requests started/completed, data/inst
system.cpu0.istage2_mmu.stage2_tlb.inst_hits            0                       # ITB inst hits
system.cpu0.istage2_mmu.stage2_tlb.inst_misses            0                       # ITB inst misses
system.cpu0.istage2_mmu.stage2_tlb.read_hits            0                       # DTB read hits
system.cpu0.istage2_mmu.stage2_tlb.read_misses            0                       # DTB read misses
system.cpu0.istage2_mmu.stage2_tlb.write_hits            0                       # DTB write hits
system.cpu0.istage2_mmu.stage2_tlb.write_misses            0                       # DTB write misses
system.cpu0.istage2_mmu.stage2_tlb.flush_tlb            0                       # Number of times complete TLB was flushed
system.cpu0.istage2_mmu.stage2_tlb.flush_tlb_mva            0                       # Number of times TLB was flushed by MVA
system.cpu0.istage2_mmu.stage2_tlb.flush_tlb_mva_asid            0                       # Number of times TLB was flushed by MVA & ASID
system.cpu0.istage2_mmu.stage2_tlb.flush_tlb_asid            0                       # Number of times TLB was flushed by ASID
system.cpu0.istage2_mmu.stage2_tlb.flush_entries            0                       # Number of entries that have been flushed from TLB
system.cpu0.istage2_mmu.stage2_tlb.align_faults            0                       # Number of TLB faults due to alignment restrictions
system.cpu0.istage2_mmu.stage2_tlb.prefetch_faults            0                       # Number of TLB faults due to prefetch
system.cpu0.istage2_mmu.stage2_tlb.domain_faults            0                       # Number of TLB faults due to domain restrictions
system.cpu0.istage2_mmu.stage2_tlb.perms_faults            0                       # Number of TLB faults due to permissions restrictions
system.cpu0.istage2_mmu.stage2_tlb.read_accesses            0                       # DTB read accesses
system.cpu0.istage2_mmu.stage2_tlb.write_accesses            0                       # DTB write accesses
system.cpu0.istage2_mmu.stage2_tlb.inst_accesses            0                       # ITB inst accesses
system.cpu0.istage2_mmu.stage2_tlb.hits             0                       # DTB hits
system.cpu0.istage2_mmu.stage2_tlb.misses            0                       # DTB misses
system.cpu0.istage2_mmu.stage2_tlb.accesses            0                       # DTB accesses
system.cpu0.itb.walker.pwrStateResidencyTicks::UNDEFINED 157606736000                       # Cumulative time (in ticks) in various power states
system.cpu0.itb.walker.walks                        0                       # Table walker walks requested
system.cpu0.itb.walker.walkRequestOrigin_Requested::Data            0                       # Table walker requests started/completed, data/inst
system.cpu0.itb.walker.walkRequestOrigin_Requested::Inst            0                       # Table walker requests started/completed, data/inst
system.cpu0.itb.walker.walkRequestOrigin_Requested::total            0                       # Table walker requests started/completed, data/inst
system.cpu0.itb.walker.walkRequestOrigin_Completed::Data            0                       # Table walker requests started/completed, data/inst
system.cpu0.itb.walker.walkRequestOrigin_Completed::Inst            0                       # Table walker requests started/completed, data/inst
system.cpu0.itb.walker.walkRequestOrigin_Completed::total            0                       # Table walker requests started/completed, data/inst
system.cpu0.itb.walker.walkRequestOrigin::total            0                       # Table walker requests started/completed, data/inst
system.cpu0.itb.inst_hits                           0                       # ITB inst hits
system.cpu0.itb.inst_misses                         0                       # ITB inst misses
system.cpu0.itb.read_hits                           0                       # DTB read hits
system.cpu0.itb.read_misses                         0                       # DTB read misses
system.cpu0.itb.write_hits                          0                       # DTB write hits
system.cpu0.itb.write_misses                        0                       # DTB write misses
system.cpu0.itb.flush_tlb                           0                       # Number of times complete TLB was flushed
system.cpu0.itb.flush_tlb_mva                       0                       # Number of times TLB was flushed by MVA
system.cpu0.itb.flush_tlb_mva_asid                  0                       # Number of times TLB was flushed by MVA & ASID
system.cpu0.itb.flush_tlb_asid                      0                       # Number of times TLB was flushed by ASID
system.cpu0.itb.flush_entries                       0                       # Number of entries that have been flushed from TLB
system.cpu0.itb.align_faults                        0                       # Number of TLB faults due to alignment restrictions
system.cpu0.itb.prefetch_faults                     0                       # Number of TLB faults due to prefetch
system.cpu0.itb.domain_faults                       0                       # Number of TLB faults due to domain restrictions
system.cpu0.itb.perms_faults                        0                       # Number of TLB faults due to permissions restrictions
system.cpu0.itb.read_accesses                       0                       # DTB read accesses
system.cpu0.itb.write_accesses                      0                       # DTB write accesses
system.cpu0.itb.inst_accesses                       0                       # ITB inst accesses
system.cpu0.itb.hits                                0                       # DTB hits
system.cpu0.itb.misses                              0                       # DTB misses
system.cpu0.itb.accesses                            0                       # DTB accesses
system.cpu0.workload.num_syscalls               43182                       # Number of system calls
system.cpu0.pwrStateResidencyTicks::ON   157606736000                       # Cumulative time (in ticks) in various power states
system.cpu0.numCycles                       157606737                       # number of cpu cycles simulated
system.cpu0.numWorkItemsStarted                     0                       # number of work items this cpu started
system.cpu0.numWorkItemsCompleted                   0                       # number of work items this cpu completed
system.cpu0.fetch.icacheStallCycles          31558118                       # Number of cycles fetch is stalled on an Icache miss
system.cpu0.fetch.Insts                     188545294                       # Number of instructions fetch has processed
system.cpu0.fetch.Branches                   33237296                       # Number of branches that fetch encountered
system.cpu0.fetch.predictedBranches          21052943                       # Number of branches that fetch has predicted taken
system.cpu0.fetch.Cycles                    125095108                       # Number of cycles fetch has run and was not squashing or blocked
system.cpu0.fetch.SquashCycles                1582877                       # Number of cycles fetch has spent squashing
system.cpu0.fetch.MiscStallCycles                  12                       # Number of cycles fetch has spent waiting on interrupts, or bad addresses, or out of MSHRs
system.cpu0.fetch.PendingTrapStallCycles          387                       # Number of stall cycles due to pending traps
system.cpu0.fetch.CacheLines                 26119035                       # Number of cache lines fetched
system.cpu0.fetch.IcacheSquashes               141980                       # Number of outstanding Icache misses that were squashed
system.cpu0.fetch.rateDist::samples         157445063                       # Number of instructions fetched each cycle (Total)
system.cpu0.fetch.rateDist::mean             1.353755                       # Number of instructions fetched each cycle (Total)
system.cpu0.fetch.rateDist::stdev            0.870910                       # Number of instructions fetched each cycle (Total)
system.cpu0.fetch.rateDist::underflows              0      0.00%      0.00% # Number of instructions fetched each cycle (Total)
system.cpu0.fetch.rateDist::0                41712907     26.49%     26.49% # Number of instructions fetched each cycle (Total)
system.cpu0.fetch.rateDist::1                18322285     11.64%     38.13% # Number of instructions fetched each cycle (Total)
system.cpu0.fetch.rateDist::2                97409871     61.87%    100.00% # Number of instructions fetched each cycle (Total)
system.cpu0.fetch.rateDist::overflows               0      0.00%    100.00% # Number of instructions fetched each cycle (Total)
system.cpu0.fetch.rateDist::min_value               0                       # Number of instructions fetched each cycle (Total)
system.cpu0.fetch.rateDist::max_value               2                       # Number of instructions fetched each cycle (Total)
system.cpu0.fetch.rateDist::total           157445063                       # Number of instructions fetched each cycle (Total)
system.cpu0.fetch.branchRate                 0.210888                       # Number of branch fetches per cycle
system.cpu0.fetch.rate                       1.196302                       # Number of inst fetches per cycle
system.cpu0.decode.IdleCycles                27153945                       # Number of cycles decode is idle
system.cpu0.decode.BlockedCycles             22221476                       # Number of cycles decode is blocked
system.cpu0.decode.RunCycles                 84106268                       # Number of cycles decode is running
system.cpu0.decode.UnblockCycles             23231244                       # Number of cycles decode is unblocking
system.cpu0.decode.SquashCycles                732130                       # Number of cycles decode is squashing
system.cpu0.decode.BranchResolved             9290935                       # Number of times decode resolved a branch
system.cpu0.decode.BranchMispred                59664                       # Number of times decode detected a branch misprediction
system.cpu0.decode.DecodedInsts             208611888                       # Number of instructions handled by decode
system.cpu0.decode.SquashedInsts               102824                       # Number of squashed instructions handled by decode
system.cpu0.rename.SquashCycles                732130                       # Number of cycles rename is squashing
system.cpu0.rename.IdleCycles                32147540                       # Number of cycles rename is idle
system.cpu0.rename.BlockCycles                2495185                       # Number of cycles rename is blocking
system.cpu0.rename.serializeStallCycles        908227                       # count of cycles rename stalled for serializing inst
system.cpu0.rename.RunCycles                102292038                       # Number of cycles rename is running
system.cpu0.rename.UnblockCycles             18869943                       # Number of cycles rename is unblocking
system.cpu0.rename.RenamedInsts             207495332                       # Number of instructions processed by rename
system.cpu0.rename.IQFullEvents              14384688                       # Number of times rename has blocked due to IQ full
system.cpu0.rename.LQFullEvents                102954                       # Number of times rename has blocked due to LQ full
system.cpu0.rename.SQFullEvents                  3595                       # Number of times rename has blocked due to SQ full
system.cpu0.rename.RenamedOperands          262936452                       # Number of destination operands rename has renamed
system.cpu0.rename.RenameLookups            961970314                       # Number of register rename lookups that rename has made
system.cpu0.rename.int_rename_lookups       267284256                       # Number of integer rename lookups
system.cpu0.rename.fp_rename_lookups               16                       # Number of floating rename lookups
system.cpu0.rename.CommittedMaps            227136743                       # Number of HB maps that are committed
system.cpu0.rename.UndoneMaps                35799709                       # Number of HB maps that are undone due to squashing
system.cpu0.rename.serializingInsts             32667                       # count of serializing insts renamed
system.cpu0.rename.tempSerializingInsts         15850                       # count of temporary serializing insts renamed
system.cpu0.rename.skidInsts                 20275899                       # count of insts added to the skid buffer
system.cpu0.memDep0.insertedLoads            26178124                       # Number of loads inserted to the mem dependence unit.
system.cpu0.memDep0.insertedStores           16278121                       # Number of stores inserted to the mem dependence unit.
system.cpu0.memDep0.conflictingLoads          8597309                       # Number of conflicting loads.
system.cpu0.memDep0.conflictingStores         3283542                       # Number of conflicting stores.
system.cpu0.iq.iqInstsAdded                 205294312                       # Number of instructions added to the IQ (excludes non-spec)
system.cpu0.iq.iqNonSpecInstsAdded              32864                       # Number of non-speculative instructions added to the IQ
system.cpu0.iq.iqInstsIssued                185821413                       # Number of instructions issued
system.cpu0.iq.iqSquashedInstsIssued          2684027                       # Number of squashed instructions issued
system.cpu0.iq.iqSquashedInstsExamined       22828596                       # Number of squashed instructions iterated over during squash; mainly for profiling
system.cpu0.iq.iqSquashedOperandsExamined     92788903                       # Number of squashed operands that are examined and possibly removed from graph
system.cpu0.iq.iqSquashedNonSpecRemoved           763                       # Number of squashed non-spec instructions that were removed
system.cpu0.iq.issued_per_cycle::samples    157445063                       # Number of insts issued each cycle
system.cpu0.iq.issued_per_cycle::mean        1.180230                       # Number of insts issued each cycle
system.cpu0.iq.issued_per_cycle::stdev       0.535018                       # Number of insts issued each cycle
system.cpu0.iq.issued_per_cycle::underflows            0      0.00%      0.00% # Number of insts issued each cycle
system.cpu0.iq.issued_per_cycle::0           10902860      6.92%      6.92% # Number of insts issued each cycle
system.cpu0.iq.issued_per_cycle::1          107262993     68.13%     75.05% # Number of insts issued each cycle
system.cpu0.iq.issued_per_cycle::2           39279210     24.95%    100.00% # Number of insts issued each cycle
system.cpu0.iq.issued_per_cycle::overflows            0      0.00%    100.00% # Number of insts issued each cycle
system.cpu0.iq.issued_per_cycle::min_value            0                       # Number of insts issued each cycle
system.cpu0.iq.issued_per_cycle::max_value            2                       # Number of insts issued each cycle
system.cpu0.iq.issued_per_cycle::total      157445063                       # Number of insts issued each cycle
system.cpu0.iq.fu_full::No_OpClass                  0      0.00%      0.00% # attempts to use FU when none available
system.cpu0.iq.fu_full::IntAlu              113202264     94.60%     94.60% # attempts to use FU when none available
system.cpu0.iq.fu_full::IntMult                     0      0.00%     94.60% # attempts to use FU when none available
system.cpu0.iq.fu_full::IntDiv                      0      0.00%     94.60% # attempts to use FU when none available
system.cpu0.iq.fu_full::FloatAdd                    0      0.00%     94.60% # attempts to use FU when none available
system.cpu0.iq.fu_full::FloatCmp                    0      0.00%     94.60% # attempts to use FU when none available
system.cpu0.iq.fu_full::FloatCvt                    0      0.00%     94.60% # attempts to use FU when none available
system.cpu0.iq.fu_full::FloatMult                   0      0.00%     94.60% # attempts to use FU when none available
system.cpu0.iq.fu_full::FloatMultAcc                0      0.00%     94.60% # attempts to use FU when none available
system.cpu0.iq.fu_full::FloatDiv                    0      0.00%     94.60% # attempts to use FU when none available
system.cpu0.iq.fu_full::FloatMisc                   0      0.00%     94.60% # attempts to use FU when none available
system.cpu0.iq.fu_full::FloatSqrt                   0      0.00%     94.60% # attempts to use FU when none available
system.cpu0.iq.fu_full::SimdAdd                     0      0.00%     94.60% # attempts to use FU when none available
system.cpu0.iq.fu_full::SimdAddAcc                  0      0.00%     94.60% # attempts to use FU when none available
system.cpu0.iq.fu_full::SimdAlu                     0      0.00%     94.60% # attempts to use FU when none available
system.cpu0.iq.fu_full::SimdCmp                     0      0.00%     94.60% # attempts to use FU when none available
system.cpu0.iq.fu_full::SimdCvt                     0      0.00%     94.60% # attempts to use FU when none available
system.cpu0.iq.fu_full::SimdMisc                    0      0.00%     94.60% # attempts to use FU when none available
system.cpu0.iq.fu_full::SimdMult                    0      0.00%     94.60% # attempts to use FU when none available
system.cpu0.iq.fu_full::SimdMultAcc                 0      0.00%     94.60% # attempts to use FU when none available
system.cpu0.iq.fu_full::SimdShift                   0      0.00%     94.60% # attempts to use FU when none available
system.cpu0.iq.fu_full::SimdShiftAcc                0      0.00%     94.60% # attempts to use FU when none available
system.cpu0.iq.fu_full::SimdSqrt                    0      0.00%     94.60% # attempts to use FU when none available
system.cpu0.iq.fu_full::SimdFloatAdd                0      0.00%     94.60% # attempts to use FU when none available
system.cpu0.iq.fu_full::SimdFloatAlu                0      0.00%     94.60% # attempts to use FU when none available
system.cpu0.iq.fu_full::SimdFloatCmp                0      0.00%     94.60% # attempts to use FU when none available
system.cpu0.iq.fu_full::SimdFloatCvt                0      0.00%     94.60% # attempts to use FU when none available
system.cpu0.iq.fu_full::SimdFloatDiv                0      0.00%     94.60% # attempts to use FU when none available
system.cpu0.iq.fu_full::SimdFloatMisc               0      0.00%     94.60% # attempts to use FU when none available
system.cpu0.iq.fu_full::SimdFloatMult               0      0.00%     94.60% # attempts to use FU when none available
system.cpu0.iq.fu_full::SimdFloatMultAcc            0      0.00%     94.60% # attempts to use FU when none available
system.cpu0.iq.fu_full::SimdFloatSqrt               0      0.00%     94.60% # attempts to use FU when none available
system.cpu0.iq.fu_full::MemRead               4412751      3.69%     98.29% # attempts to use FU when none available
system.cpu0.iq.fu_full::MemWrite              2050469      1.71%    100.00% # attempts to use FU when none available
system.cpu0.iq.fu_full::FloatMemRead                0      0.00%    100.00% # attempts to use FU when none available
system.cpu0.iq.fu_full::FloatMemWrite               0      0.00%    100.00% # attempts to use FU when none available
system.cpu0.iq.fu_full::IprAccess                   0      0.00%    100.00% # attempts to use FU when none available
system.cpu0.iq.fu_full::InstPrefetch                0      0.00%    100.00% # attempts to use FU when none available
system.cpu0.iq.FU_type_0::No_OpClass                0      0.00%      0.00% # Type of FU issued
system.cpu0.iq.FU_type_0::IntAlu            144128634     77.56%     77.56% # Type of FU issued
system.cpu0.iq.FU_type_0::IntMult             1007409      0.54%     78.11% # Type of FU issued
system.cpu0.iq.FU_type_0::IntDiv                    0      0.00%     78.11% # Type of FU issued
system.cpu0.iq.FU_type_0::FloatAdd                  0      0.00%     78.11% # Type of FU issued
system.cpu0.iq.FU_type_0::FloatCmp                  0      0.00%     78.11% # Type of FU issued
system.cpu0.iq.FU_type_0::FloatCvt                  0      0.00%     78.11% # Type of FU issued
system.cpu0.iq.FU_type_0::FloatMult                 0      0.00%     78.11% # Type of FU issued
system.cpu0.iq.FU_type_0::FloatMultAcc              0      0.00%     78.11% # Type of FU issued
system.cpu0.iq.FU_type_0::FloatDiv                  0      0.00%     78.11% # Type of FU issued
system.cpu0.iq.FU_type_0::FloatMisc                 0      0.00%     78.11% # Type of FU issued
system.cpu0.iq.FU_type_0::FloatSqrt                 0      0.00%     78.11% # Type of FU issued
system.cpu0.iq.FU_type_0::SimdAdd                   0      0.00%     78.11% # Type of FU issued
system.cpu0.iq.FU_type_0::SimdAddAcc                0      0.00%     78.11% # Type of FU issued
system.cpu0.iq.FU_type_0::SimdAlu                   0      0.00%     78.11% # Type of FU issued
system.cpu0.iq.FU_type_0::SimdCmp                   0      0.00%     78.11% # Type of FU issued
system.cpu0.iq.FU_type_0::SimdCvt                   0      0.00%     78.11% # Type of FU issued
system.cpu0.iq.FU_type_0::SimdMisc                  0      0.00%     78.11% # Type of FU issued
system.cpu0.iq.FU_type_0::SimdMult                  0      0.00%     78.11% # Type of FU issued
system.cpu0.iq.FU_type_0::SimdMultAcc               0      0.00%     78.11% # Type of FU issued
system.cpu0.iq.FU_type_0::SimdShift                 0      0.00%     78.11% # Type of FU issued
system.cpu0.iq.FU_type_0::SimdShiftAcc              0      0.00%     78.11% # Type of FU issued
system.cpu0.iq.FU_type_0::SimdSqrt                  0      0.00%     78.11% # Type of FU issued
system.cpu0.iq.FU_type_0::SimdFloatAdd              0      0.00%     78.11% # Type of FU issued
system.cpu0.iq.FU_type_0::SimdFloatAlu              0      0.00%     78.11% # Type of FU issued
system.cpu0.iq.FU_type_0::SimdFloatCmp              0      0.00%     78.11% # Type of FU issued
system.cpu0.iq.FU_type_0::SimdFloatCvt              0      0.00%     78.11% # Type of FU issued
system.cpu0.iq.FU_type_0::SimdFloatDiv              0      0.00%     78.11% # Type of FU issued
system.cpu0.iq.FU_type_0::SimdFloatMisc         16714      0.01%     78.11% # Type of FU issued
system.cpu0.iq.FU_type_0::SimdFloatMult             0      0.00%     78.11% # Type of FU issued
system.cpu0.iq.FU_type_0::SimdFloatMultAcc            0      0.00%     78.11% # Type of FU issued
system.cpu0.iq.FU_type_0::SimdFloatSqrt             0      0.00%     78.11% # Type of FU issued
system.cpu0.iq.FU_type_0::MemRead            25334042     13.63%     91.75% # Type of FU issued
system.cpu0.iq.FU_type_0::MemWrite           15334598      8.25%    100.00% # Type of FU issued
system.cpu0.iq.FU_type_0::FloatMemRead              0      0.00%    100.00% # Type of FU issued
system.cpu0.iq.FU_type_0::FloatMemWrite            16      0.00%    100.00% # Type of FU issued
system.cpu0.iq.FU_type_0::IprAccess                 0      0.00%    100.00% # Type of FU issued
system.cpu0.iq.FU_type_0::InstPrefetch              0      0.00%    100.00% # Type of FU issued
system.cpu0.iq.FU_type_0::total             185821413                       # Type of FU issued
system.cpu0.iq.rate                          1.179019                       # Inst issue rate
system.cpu0.iq.fu_busy_cnt                  119665484                       # FU busy when requested
system.cpu0.iq.fu_busy_rate                  0.643981                       # FU busy rate (busy events/executed inst)
system.cpu0.iq.int_inst_queue_reads         651437368                       # Number of integer instruction queue reads
system.cpu0.iq.int_inst_queue_writes        228158788                       # Number of integer instruction queue writes
system.cpu0.iq.int_inst_queue_wakeup_accesses    185178523                       # Number of integer instruction queue wakeup accesses
system.cpu0.iq.fp_inst_queue_reads                 32                       # Number of floating instruction queue reads
system.cpu0.iq.fp_inst_queue_writes                16                       # Number of floating instruction queue writes
system.cpu0.iq.fp_inst_queue_wakeup_accesses           16                       # Number of floating instruction queue wakeup accesses
system.cpu0.iq.int_alu_accesses             305486881                       # Number of integer alu accesses
system.cpu0.iq.fp_alu_accesses                     16                       # Number of floating point alu accesses
system.cpu0.iew.lsq.thread0.forwLoads         3624543                       # Number of loads that had data forwarded from stores
system.cpu0.iew.lsq.thread0.invAddrLoads            0                       # Number of loads ignored due to an invalid address
system.cpu0.iew.lsq.thread0.squashedLoads      1957551                       # Number of loads squashed
system.cpu0.iew.lsq.thread0.ignoredResponses          693                       # Number of memory responses ignored because the instruction is squashed
system.cpu0.iew.lsq.thread0.memOrderViolation         3066                       # Number of memory ordering violations
system.cpu0.iew.lsq.thread0.squashedStores      1231145                       # Number of stores squashed
system.cpu0.iew.lsq.thread0.invAddrSwpfs            0                       # Number of software prefetches ignored due to an invalid address
system.cpu0.iew.lsq.thread0.blockedLoads            0                       # Number of blocked loads due to partial load-store forwarding
system.cpu0.iew.lsq.thread0.rescheduledLoads       265470                       # Number of loads that were rescheduled
system.cpu0.iew.lsq.thread0.cacheBlocked         1273                       # Number of times an access to memory failed due to the cache being blocked
system.cpu0.iew.iewIdleCycles                       0                       # Number of cycles IEW is idle
system.cpu0.iew.iewSquashCycles                732130                       # Number of cycles IEW is squashing
system.cpu0.iew.iewBlockCycles                2448569                       # Number of cycles IEW is blocking
system.cpu0.iew.iewUnblockCycles                34828                       # Number of cycles IEW is unblocking
system.cpu0.iew.iewDispatchedInsts          205327221                       # Number of instructions dispatched to IQ
system.cpu0.iew.iewDispSquashedInsts           144907                       # Number of squashed instructions skipped by dispatch
system.cpu0.iew.iewDispLoadInsts             26178124                       # Number of dispatched load instructions
system.cpu0.iew.iewDispStoreInsts            16278121                       # Number of dispatched store instructions
system.cpu0.iew.iewDispNonSpecInsts             15723                       # Number of dispatched non-speculative instructions
system.cpu0.iew.iewIQFullEvents                   498                       # Number of times the IQ has become full, causing a stall
system.cpu0.iew.iewLSQFullEvents                  563                       # Number of times the LSQ has become full, causing a stall
system.cpu0.iew.memOrderViolationEvents          3066                       # Number of memory order violations
system.cpu0.iew.predictedTakenIncorrect        387382                       # Number of branches that were predicted taken incorrectly
system.cpu0.iew.predictedNotTakenIncorrect       382629                       # Number of branches that were predicted not taken incorrectly
system.cpu0.iew.branchMispredicts              770011                       # Number of branch mispredicts detected at execute
system.cpu0.iew.iewExecutedInsts            185587453                       # Number of executed instructions
system.cpu0.iew.iewExecLoadInsts             25254882                       # Number of load instructions executed
system.cpu0.iew.iewExecSquashedInsts           233960                       # Number of squashed instructions skipped in execute
system.cpu0.iew.exec_swp                            0                       # number of swp insts executed
system.cpu0.iew.exec_nop                           45                       # number of nop insts executed
system.cpu0.iew.exec_refs                    40548821                       # number of memory reference insts executed
system.cpu0.iew.exec_branches                28675978                       # Number of branches executed
system.cpu0.iew.exec_stores                  15293939                       # Number of stores executed
system.cpu0.iew.exec_rate                    1.177535                       # Inst execution rate
system.cpu0.iew.wb_sent                     185218912                       # cumulative count of insts sent to commit
system.cpu0.iew.wb_count                    185178539                       # cumulative count of insts written-back
system.cpu0.iew.wb_producers                136032401                       # num instructions producing a value
system.cpu0.iew.wb_consumers                319589653                       # num instructions consuming a value
system.cpu0.iew.wb_rate                      1.174941                       # insts written-back per cycle
system.cpu0.iew.wb_fanout                    0.425647                       # average fanout of values written-back
system.cpu0.commit.commitSquashedInsts       22828791                       # The number of squashed insts skipped by commit
system.cpu0.commit.commitNonSpecStalls          32101                       # The number of times commit has been forced to stall to communicate backwards
system.cpu0.commit.branchMispredicts           725057                       # The number of times a branch was mispredicted
system.cpu0.commit.committed_per_cycle::samples    154283364                       # Number of insts commited each cycle
system.cpu0.commit.committed_per_cycle::mean     1.182879                       # Number of insts commited each cycle
system.cpu0.commit.committed_per_cycle::stdev     1.034955                       # Number of insts commited each cycle
system.cpu0.commit.committed_per_cycle::underflows            0      0.00%      0.00% # Number of insts commited each cycle
system.cpu0.commit.committed_per_cycle::0     18510227     12.00%     12.00% # Number of insts commited each cycle
system.cpu0.commit.committed_per_cycle::1    112090981     72.65%     84.65% # Number of insts commited each cycle
system.cpu0.commit.committed_per_cycle::2     14263628      9.25%     93.90% # Number of insts commited each cycle
system.cpu0.commit.committed_per_cycle::3      4245917      2.75%     96.65% # Number of insts commited each cycle
system.cpu0.commit.committed_per_cycle::4      1818992      1.18%     97.83% # Number of insts commited each cycle
system.cpu0.commit.committed_per_cycle::5       413770      0.27%     98.09% # Number of insts commited each cycle
system.cpu0.commit.committed_per_cycle::6       994818      0.64%     98.74% # Number of insts commited each cycle
system.cpu0.commit.committed_per_cycle::7      1731382      1.12%     99.86% # Number of insts commited each cycle
system.cpu0.commit.committed_per_cycle::8       213649      0.14%    100.00% # Number of insts commited each cycle
system.cpu0.commit.committed_per_cycle::overflows            0      0.00%    100.00% # Number of insts commited each cycle
system.cpu0.commit.committed_per_cycle::min_value            0                       # Number of insts commited each cycle
system.cpu0.commit.committed_per_cycle::max_value            8                       # Number of insts commited each cycle
system.cpu0.commit.committed_per_cycle::total    154283364                       # Number of insts commited each cycle
system.cpu0.commit.committedInsts           161545959                       # Number of instructions committed
system.cpu0.commit.committedOps             182498580                       # Number of ops (including micro ops) committed
system.cpu0.commit.swp_count                        0                       # Number of s/w prefetches committed
system.cpu0.commit.refs                      39267549                       # Number of memory references committed
system.cpu0.commit.loads                     24220573                       # Number of loads committed
system.cpu0.commit.membars                      17103                       # Number of memory barriers committed
system.cpu0.commit.branches                  28404431                       # Number of branches committed
system.cpu0.commit.fp_insts                        16                       # Number of committed floating point instructions.
system.cpu0.commit.int_insts                165765459                       # Number of committed integer instructions.
system.cpu0.commit.function_calls             4884611                       # Number of function calls committed.
system.cpu0.commit.op_class_0::No_OpClass            0      0.00%      0.00% # Class of committed instruction
system.cpu0.commit.op_class_0::IntAlu       142243439     77.94%     77.94% # Class of committed instruction
system.cpu0.commit.op_class_0::IntMult         970878      0.53%     78.47% # Class of committed instruction
system.cpu0.commit.op_class_0::IntDiv               0      0.00%     78.47% # Class of committed instruction
system.cpu0.commit.op_class_0::FloatAdd             0      0.00%     78.47% # Class of committed instruction
system.cpu0.commit.op_class_0::FloatCmp             0      0.00%     78.47% # Class of committed instruction
system.cpu0.commit.op_class_0::FloatCvt             0      0.00%     78.47% # Class of committed instruction
system.cpu0.commit.op_class_0::FloatMult            0      0.00%     78.47% # Class of committed instruction
system.cpu0.commit.op_class_0::FloatMultAcc            0      0.00%     78.47% # Class of committed instruction
system.cpu0.commit.op_class_0::FloatDiv             0      0.00%     78.47% # Class of committed instruction
system.cpu0.commit.op_class_0::FloatMisc            0      0.00%     78.47% # Class of committed instruction
system.cpu0.commit.op_class_0::FloatSqrt            0      0.00%     78.47% # Class of committed instruction
system.cpu0.commit.op_class_0::SimdAdd              0      0.00%     78.47% # Class of committed instruction
system.cpu0.commit.op_class_0::SimdAddAcc            0      0.00%     78.47% # Class of committed instruction
system.cpu0.commit.op_class_0::SimdAlu              0      0.00%     78.47% # Class of committed instruction
system.cpu0.commit.op_class_0::SimdCmp              0      0.00%     78.47% # Class of committed instruction
system.cpu0.commit.op_class_0::SimdCvt              0      0.00%     78.47% # Class of committed instruction
system.cpu0.commit.op_class_0::SimdMisc             0      0.00%     78.47% # Class of committed instruction
system.cpu0.commit.op_class_0::SimdMult             0      0.00%     78.47% # Class of committed instruction
system.cpu0.commit.op_class_0::SimdMultAcc            0      0.00%     78.47% # Class of committed instruction
system.cpu0.commit.op_class_0::SimdShift            0      0.00%     78.47% # Class of committed instruction
system.cpu0.commit.op_class_0::SimdShiftAcc            0      0.00%     78.47% # Class of committed instruction
system.cpu0.commit.op_class_0::SimdSqrt             0      0.00%     78.47% # Class of committed instruction
system.cpu0.commit.op_class_0::SimdFloatAdd            0      0.00%     78.47% # Class of committed instruction
system.cpu0.commit.op_class_0::SimdFloatAlu            0      0.00%     78.47% # Class of committed instruction
system.cpu0.commit.op_class_0::SimdFloatCmp            0      0.00%     78.47% # Class of committed instruction
system.cpu0.commit.op_class_0::SimdFloatCvt            0      0.00%     78.47% # Class of committed instruction
system.cpu0.commit.op_class_0::SimdFloatDiv            0      0.00%     78.47% # Class of committed instruction
system.cpu0.commit.op_class_0::SimdFloatMisc        16714      0.01%     78.48% # Class of committed instruction
system.cpu0.commit.op_class_0::SimdFloatMult            0      0.00%     78.48% # Class of committed instruction
system.cpu0.commit.op_class_0::SimdFloatMultAcc            0      0.00%     78.48% # Class of committed instruction
system.cpu0.commit.op_class_0::SimdFloatSqrt            0      0.00%     78.48% # Class of committed instruction
system.cpu0.commit.op_class_0::MemRead       24220573     13.27%     91.76% # Class of committed instruction
system.cpu0.commit.op_class_0::MemWrite      15046960      8.24%    100.00% # Class of committed instruction
system.cpu0.commit.op_class_0::FloatMemRead            0      0.00%    100.00% # Class of committed instruction
system.cpu0.commit.op_class_0::FloatMemWrite           16      0.00%    100.00% # Class of committed instruction
system.cpu0.commit.op_class_0::IprAccess            0      0.00%    100.00% # Class of committed instruction
system.cpu0.commit.op_class_0::InstPrefetch            0      0.00%    100.00% # Class of committed instruction
system.cpu0.commit.op_class_0::total        182498580                       # Class of committed instruction
system.cpu0.commit.bw_lim_events               213649                       # number cycles where commit BW limit reached
system.cpu0.rob.rob_reads                   359341447                       # The number of ROB reads
system.cpu0.rob.rob_writes                  413816938                       # The number of ROB writes
system.cpu0.timesIdled                           8586                       # Number of times that the entire CPU went into an idle state and unscheduled itself
system.cpu0.idleCycles                         161674                       # Total number of cycles that the CPU has spent unscheduled due to idling
system.cpu0.committedInsts                  161545959                       # Number of Instructions Simulated
system.cpu0.committedOps                    182498580                       # Number of Ops (including micro ops) Simulated
system.cpu0.cpi                              0.975615                       # CPI: Cycles Per Instruction
system.cpu0.cpi_total                        0.975615                       # CPI: Total CPI of All Threads
system.cpu0.ipc                              1.024994                       # IPC: Instructions Per Cycle
system.cpu0.ipc_total                        1.024994                       # IPC: Total IPC of All Threads
system.cpu0.int_regfile_reads               219093962                       # number of integer regfile reads
system.cpu0.int_regfile_writes              130519123                       # number of integer regfile writes
system.cpu0.fp_regfile_reads                      496                       # number of floating regfile reads
system.cpu0.cc_regfile_reads                638059876                       # number of cc regfile reads
system.cpu0.cc_regfile_writes                96768071                       # number of cc regfile writes
system.cpu0.misc_regfile_reads               40055643                       # number of misc regfile reads
system.cpu0.misc_regfile_writes                 22445                       # number of misc regfile writes
system.cpu0.dcache.tags.pwrStateResidencyTicks::UNDEFINED 157606736000                       # Cumulative time (in ticks) in various power states
system.cpu0.dcache.tags.replacements            10968                       # number of replacements
system.cpu0.dcache.tags.tagsinuse          235.114595                       # Cycle average of tags in use
system.cpu0.dcache.tags.total_refs           35446882                       # Total number of references to valid blocks.
system.cpu0.dcache.tags.sampled_refs            11224                       # Sample count of references to valid blocks.
system.cpu0.dcache.tags.avg_refs          3158.132751                       # Average number of references to valid blocks.
system.cpu0.dcache.tags.warmup_cycle      11921722500                       # Cycle when the warmup percentage was hit.
system.cpu0.dcache.tags.occ_blocks::cpu0.data   235.114595                       # Average occupied blocks per requestor
system.cpu0.dcache.tags.occ_percent::cpu0.data     0.918416                       # Average percentage of cache occupancy
system.cpu0.dcache.tags.occ_percent::total     0.918416                       # Average percentage of cache occupancy
system.cpu0.dcache.tags.occ_task_id_blocks::1024          256                       # Occupied blocks per task id
system.cpu0.dcache.tags.age_task_id_blocks_1024::0           26                       # Occupied blocks per task id
system.cpu0.dcache.tags.age_task_id_blocks_1024::1           57                       # Occupied blocks per task id
system.cpu0.dcache.tags.age_task_id_blocks_1024::2           34                       # Occupied blocks per task id
system.cpu0.dcache.tags.age_task_id_blocks_1024::3           78                       # Occupied blocks per task id
system.cpu0.dcache.tags.age_task_id_blocks_1024::4           61                       # Occupied blocks per task id
system.cpu0.dcache.tags.occ_task_id_percent::1024            1                       # Percentage of cache occupancy per task id
system.cpu0.dcache.tags.tag_accesses        141892026                       # Number of tag accesses
system.cpu0.dcache.tags.data_accesses       141892026                       # Number of data accesses
system.cpu0.dcache.pwrStateResidencyTicks::UNDEFINED 157606736000                       # Cumulative time (in ticks) in various power states
system.cpu0.dcache.ReadReq_hits::cpu0.data     20553328                       # number of ReadReq hits
system.cpu0.dcache.ReadReq_hits::total       20553328                       # number of ReadReq hits
system.cpu0.dcache.WriteReq_hits::cpu0.data     14870956                       # number of WriteReq hits
system.cpu0.dcache.WriteReq_hits::total      14870956                       # number of WriteReq hits
system.cpu0.dcache.LoadLockedReq_hits::cpu0.data        10680                       # number of LoadLockedReq hits
system.cpu0.dcache.LoadLockedReq_hits::total        10680                       # number of LoadLockedReq hits
system.cpu0.dcache.StoreCondReq_hits::cpu0.data         9245                       # number of StoreCondReq hits
system.cpu0.dcache.StoreCondReq_hits::total         9245                       # number of StoreCondReq hits
system.cpu0.dcache.demand_hits::cpu0.data     35424284                       # number of demand (read+write) hits
system.cpu0.dcache.demand_hits::total        35424284                       # number of demand (read+write) hits
system.cpu0.dcache.overall_hits::cpu0.data     35424284                       # number of overall hits
system.cpu0.dcache.overall_hits::total       35424284                       # number of overall hits
system.cpu0.dcache.ReadReq_misses::cpu0.data         9527                       # number of ReadReq misses
system.cpu0.dcache.ReadReq_misses::total         9527                       # number of ReadReq misses
system.cpu0.dcache.WriteReq_misses::cpu0.data        14092                       # number of WriteReq misses
system.cpu0.dcache.WriteReq_misses::total        14092                       # number of WriteReq misses
system.cpu0.dcache.LoadLockedReq_misses::cpu0.data          166                       # number of LoadLockedReq misses
system.cpu0.dcache.LoadLockedReq_misses::total          166                       # number of LoadLockedReq misses
system.cpu0.dcache.StoreCondReq_misses::cpu0.data         1402                       # number of StoreCondReq misses
system.cpu0.dcache.StoreCondReq_misses::total         1402                       # number of StoreCondReq misses
system.cpu0.dcache.demand_misses::cpu0.data        23619                       # number of demand (read+write) misses
system.cpu0.dcache.demand_misses::total         23619                       # number of demand (read+write) misses
system.cpu0.dcache.overall_misses::cpu0.data        23619                       # number of overall misses
system.cpu0.dcache.overall_misses::total        23619                       # number of overall misses
system.cpu0.dcache.ReadReq_miss_latency::cpu0.data    290296000                       # number of ReadReq miss cycles
system.cpu0.dcache.ReadReq_miss_latency::total    290296000                       # number of ReadReq miss cycles
system.cpu0.dcache.WriteReq_miss_latency::cpu0.data    369639756                       # number of WriteReq miss cycles
system.cpu0.dcache.WriteReq_miss_latency::total    369639756                       # number of WriteReq miss cycles
system.cpu0.dcache.LoadLockedReq_miss_latency::cpu0.data      2085000                       # number of LoadLockedReq miss cycles
system.cpu0.dcache.LoadLockedReq_miss_latency::total      2085000                       # number of LoadLockedReq miss cycles
system.cpu0.dcache.StoreCondReq_miss_latency::cpu0.data     14598000                       # number of StoreCondReq miss cycles
system.cpu0.dcache.StoreCondReq_miss_latency::total     14598000                       # number of StoreCondReq miss cycles
system.cpu0.dcache.StoreCondFailReq_miss_latency::cpu0.data        91000                       # number of StoreCondFailReq miss cycles
system.cpu0.dcache.StoreCondFailReq_miss_latency::total        91000                       # number of StoreCondFailReq miss cycles
system.cpu0.dcache.demand_miss_latency::cpu0.data    659935756                       # number of demand (read+write) miss cycles
system.cpu0.dcache.demand_miss_latency::total    659935756                       # number of demand (read+write) miss cycles
system.cpu0.dcache.overall_miss_latency::cpu0.data    659935756                       # number of overall miss cycles
system.cpu0.dcache.overall_miss_latency::total    659935756                       # number of overall miss cycles
system.cpu0.dcache.ReadReq_accesses::cpu0.data     20562855                       # number of ReadReq accesses(hits+misses)
system.cpu0.dcache.ReadReq_accesses::total     20562855                       # number of ReadReq accesses(hits+misses)
system.cpu0.dcache.WriteReq_accesses::cpu0.data     14885048                       # number of WriteReq accesses(hits+misses)
system.cpu0.dcache.WriteReq_accesses::total     14885048                       # number of WriteReq accesses(hits+misses)
system.cpu0.dcache.LoadLockedReq_accesses::cpu0.data        10846                       # number of LoadLockedReq accesses(hits+misses)
system.cpu0.dcache.LoadLockedReq_accesses::total        10846                       # number of LoadLockedReq accesses(hits+misses)
system.cpu0.dcache.StoreCondReq_accesses::cpu0.data        10647                       # number of StoreCondReq accesses(hits+misses)
system.cpu0.dcache.StoreCondReq_accesses::total        10647                       # number of StoreCondReq accesses(hits+misses)
system.cpu0.dcache.demand_accesses::cpu0.data     35447903                       # number of demand (read+write) accesses
system.cpu0.dcache.demand_accesses::total     35447903                       # number of demand (read+write) accesses
system.cpu0.dcache.overall_accesses::cpu0.data     35447903                       # number of overall (read+write) accesses
system.cpu0.dcache.overall_accesses::total     35447903                       # number of overall (read+write) accesses
system.cpu0.dcache.ReadReq_miss_rate::cpu0.data     0.000463                       # miss rate for ReadReq accesses
system.cpu0.dcache.ReadReq_miss_rate::total     0.000463                       # miss rate for ReadReq accesses
system.cpu0.dcache.WriteReq_miss_rate::cpu0.data     0.000947                       # miss rate for WriteReq accesses
system.cpu0.dcache.WriteReq_miss_rate::total     0.000947                       # miss rate for WriteReq accesses
system.cpu0.dcache.LoadLockedReq_miss_rate::cpu0.data     0.015305                       # miss rate for LoadLockedReq accesses
system.cpu0.dcache.LoadLockedReq_miss_rate::total     0.015305                       # miss rate for LoadLockedReq accesses
system.cpu0.dcache.StoreCondReq_miss_rate::cpu0.data     0.131680                       # miss rate for StoreCondReq accesses
system.cpu0.dcache.StoreCondReq_miss_rate::total     0.131680                       # miss rate for StoreCondReq accesses
system.cpu0.dcache.demand_miss_rate::cpu0.data     0.000666                       # miss rate for demand accesses
system.cpu0.dcache.demand_miss_rate::total     0.000666                       # miss rate for demand accesses
system.cpu0.dcache.overall_miss_rate::cpu0.data     0.000666                       # miss rate for overall accesses
system.cpu0.dcache.overall_miss_rate::total     0.000666                       # miss rate for overall accesses
system.cpu0.dcache.ReadReq_avg_miss_latency::cpu0.data 30470.872258                       # average ReadReq miss latency
system.cpu0.dcache.ReadReq_avg_miss_latency::total 30470.872258                       # average ReadReq miss latency
system.cpu0.dcache.WriteReq_avg_miss_latency::cpu0.data 26230.468067                       # average WriteReq miss latency
system.cpu0.dcache.WriteReq_avg_miss_latency::total 26230.468067                       # average WriteReq miss latency
system.cpu0.dcache.LoadLockedReq_avg_miss_latency::cpu0.data 12560.240964                       # average LoadLockedReq miss latency
system.cpu0.dcache.LoadLockedReq_avg_miss_latency::total 12560.240964                       # average LoadLockedReq miss latency
system.cpu0.dcache.StoreCondReq_avg_miss_latency::cpu0.data 10412.268188                       # average StoreCondReq miss latency
system.cpu0.dcache.StoreCondReq_avg_miss_latency::total 10412.268188                       # average StoreCondReq miss latency
system.cpu0.dcache.StoreCondFailReq_avg_miss_latency::cpu0.data          inf                       # average StoreCondFailReq miss latency
system.cpu0.dcache.StoreCondFailReq_avg_miss_latency::total          inf                       # average StoreCondFailReq miss latency
system.cpu0.dcache.demand_avg_miss_latency::cpu0.data 27940.884711                       # average overall miss latency
system.cpu0.dcache.demand_avg_miss_latency::total 27940.884711                       # average overall miss latency
system.cpu0.dcache.overall_avg_miss_latency::cpu0.data 27940.884711                       # average overall miss latency
system.cpu0.dcache.overall_avg_miss_latency::total 27940.884711                       # average overall miss latency
system.cpu0.dcache.blocked_cycles::no_mshrs         5170                       # number of cycles access was blocked
system.cpu0.dcache.blocked_cycles::no_targets            0                       # number of cycles access was blocked
system.cpu0.dcache.blocked::no_mshrs              590                       # number of cycles access was blocked
system.cpu0.dcache.blocked::no_targets              0                       # number of cycles access was blocked
system.cpu0.dcache.avg_blocked_cycles::no_mshrs     8.762712                       # average number of cycles each access was blocked
system.cpu0.dcache.avg_blocked_cycles::no_targets          nan                       # average number of cycles each access was blocked
system.cpu0.dcache.writebacks::writebacks         8238                       # number of writebacks
system.cpu0.dcache.writebacks::total             8238                       # number of writebacks
system.cpu0.dcache.ReadReq_mshr_hits::cpu0.data         3928                       # number of ReadReq MSHR hits
system.cpu0.dcache.ReadReq_mshr_hits::total         3928                       # number of ReadReq MSHR hits
system.cpu0.dcache.WriteReq_mshr_hits::cpu0.data         4425                       # number of WriteReq MSHR hits
system.cpu0.dcache.WriteReq_mshr_hits::total         4425                       # number of WriteReq MSHR hits
system.cpu0.dcache.LoadLockedReq_mshr_hits::cpu0.data          108                       # number of LoadLockedReq MSHR hits
system.cpu0.dcache.LoadLockedReq_mshr_hits::total          108                       # number of LoadLockedReq MSHR hits
system.cpu0.dcache.demand_mshr_hits::cpu0.data         8353                       # number of demand (read+write) MSHR hits
system.cpu0.dcache.demand_mshr_hits::total         8353                       # number of demand (read+write) MSHR hits
system.cpu0.dcache.overall_mshr_hits::cpu0.data         8353                       # number of overall MSHR hits
system.cpu0.dcache.overall_mshr_hits::total         8353                       # number of overall MSHR hits
system.cpu0.dcache.ReadReq_mshr_misses::cpu0.data         5599                       # number of ReadReq MSHR misses
system.cpu0.dcache.ReadReq_mshr_misses::total         5599                       # number of ReadReq MSHR misses
system.cpu0.dcache.WriteReq_mshr_misses::cpu0.data         9667                       # number of WriteReq MSHR misses
system.cpu0.dcache.WriteReq_mshr_misses::total         9667                       # number of WriteReq MSHR misses
system.cpu0.dcache.LoadLockedReq_mshr_misses::cpu0.data           58                       # number of LoadLockedReq MSHR misses
system.cpu0.dcache.LoadLockedReq_mshr_misses::total           58                       # number of LoadLockedReq MSHR misses
system.cpu0.dcache.StoreCondReq_mshr_misses::cpu0.data         1402                       # number of StoreCondReq MSHR misses
system.cpu0.dcache.StoreCondReq_mshr_misses::total         1402                       # number of StoreCondReq MSHR misses
system.cpu0.dcache.demand_mshr_misses::cpu0.data        15266                       # number of demand (read+write) MSHR misses
system.cpu0.dcache.demand_mshr_misses::total        15266                       # number of demand (read+write) MSHR misses
system.cpu0.dcache.overall_mshr_misses::cpu0.data        15266                       # number of overall MSHR misses
system.cpu0.dcache.overall_mshr_misses::total        15266                       # number of overall MSHR misses
system.cpu0.dcache.ReadReq_mshr_miss_latency::cpu0.data    147330000                       # number of ReadReq MSHR miss cycles
system.cpu0.dcache.ReadReq_mshr_miss_latency::total    147330000                       # number of ReadReq MSHR miss cycles
system.cpu0.dcache.WriteReq_mshr_miss_latency::cpu0.data    194462853                       # number of WriteReq MSHR miss cycles
system.cpu0.dcache.WriteReq_mshr_miss_latency::total    194462853                       # number of WriteReq MSHR miss cycles
system.cpu0.dcache.LoadLockedReq_mshr_miss_latency::cpu0.data       622500                       # number of LoadLockedReq MSHR miss cycles
system.cpu0.dcache.LoadLockedReq_mshr_miss_latency::total       622500                       # number of LoadLockedReq MSHR miss cycles
system.cpu0.dcache.StoreCondReq_mshr_miss_latency::cpu0.data     11800000                       # number of StoreCondReq MSHR miss cycles
system.cpu0.dcache.StoreCondReq_mshr_miss_latency::total     11800000                       # number of StoreCondReq MSHR miss cycles
system.cpu0.dcache.StoreCondFailReq_mshr_miss_latency::cpu0.data        79500                       # number of StoreCondFailReq MSHR miss cycles
system.cpu0.dcache.StoreCondFailReq_mshr_miss_latency::total        79500                       # number of StoreCondFailReq MSHR miss cycles
system.cpu0.dcache.demand_mshr_miss_latency::cpu0.data    341792853                       # number of demand (read+write) MSHR miss cycles
system.cpu0.dcache.demand_mshr_miss_latency::total    341792853                       # number of demand (read+write) MSHR miss cycles
system.cpu0.dcache.overall_mshr_miss_latency::cpu0.data    341792853                       # number of overall MSHR miss cycles
system.cpu0.dcache.overall_mshr_miss_latency::total    341792853                       # number of overall MSHR miss cycles
system.cpu0.dcache.ReadReq_mshr_miss_rate::cpu0.data     0.000272                       # mshr miss rate for ReadReq accesses
system.cpu0.dcache.ReadReq_mshr_miss_rate::total     0.000272                       # mshr miss rate for ReadReq accesses
system.cpu0.dcache.WriteReq_mshr_miss_rate::cpu0.data     0.000649                       # mshr miss rate for WriteReq accesses
system.cpu0.dcache.WriteReq_mshr_miss_rate::total     0.000649                       # mshr miss rate for WriteReq accesses
system.cpu0.dcache.LoadLockedReq_mshr_miss_rate::cpu0.data     0.005348                       # mshr miss rate for LoadLockedReq accesses
system.cpu0.dcache.LoadLockedReq_mshr_miss_rate::total     0.005348                       # mshr miss rate for LoadLockedReq accesses
system.cpu0.dcache.StoreCondReq_mshr_miss_rate::cpu0.data     0.131680                       # mshr miss rate for StoreCondReq accesses
system.cpu0.dcache.StoreCondReq_mshr_miss_rate::total     0.131680                       # mshr miss rate for StoreCondReq accesses
system.cpu0.dcache.demand_mshr_miss_rate::cpu0.data     0.000431                       # mshr miss rate for demand accesses
system.cpu0.dcache.demand_mshr_miss_rate::total     0.000431                       # mshr miss rate for demand accesses
system.cpu0.dcache.overall_mshr_miss_rate::cpu0.data     0.000431                       # mshr miss rate for overall accesses
system.cpu0.dcache.overall_mshr_miss_rate::total     0.000431                       # mshr miss rate for overall accesses
system.cpu0.dcache.ReadReq_avg_mshr_miss_latency::cpu0.data 26313.627433                       # average ReadReq mshr miss latency
system.cpu0.dcache.ReadReq_avg_mshr_miss_latency::total 26313.627433                       # average ReadReq mshr miss latency
system.cpu0.dcache.WriteReq_avg_mshr_miss_latency::cpu0.data 20116.153202                       # average WriteReq mshr miss latency
system.cpu0.dcache.WriteReq_avg_mshr_miss_latency::total 20116.153202                       # average WriteReq mshr miss latency
system.cpu0.dcache.LoadLockedReq_avg_mshr_miss_latency::cpu0.data 10732.758621                       # average LoadLockedReq mshr miss latency
system.cpu0.dcache.LoadLockedReq_avg_mshr_miss_latency::total 10732.758621                       # average LoadLockedReq mshr miss latency
system.cpu0.dcache.StoreCondReq_avg_mshr_miss_latency::cpu0.data  8416.547789                       # average StoreCondReq mshr miss latency
system.cpu0.dcache.StoreCondReq_avg_mshr_miss_latency::total  8416.547789                       # average StoreCondReq mshr miss latency
system.cpu0.dcache.StoreCondFailReq_avg_mshr_miss_latency::cpu0.data          inf                       # average StoreCondFailReq mshr miss latency
system.cpu0.dcache.StoreCondFailReq_avg_mshr_miss_latency::total          inf                       # average StoreCondFailReq mshr miss latency
system.cpu0.dcache.demand_avg_mshr_miss_latency::cpu0.data 22389.155836                       # average overall mshr miss latency
system.cpu0.dcache.demand_avg_mshr_miss_latency::total 22389.155836                       # average overall mshr miss latency
system.cpu0.dcache.overall_avg_mshr_miss_latency::cpu0.data 22389.155836                       # average overall mshr miss latency
system.cpu0.dcache.overall_avg_mshr_miss_latency::total 22389.155836                       # average overall mshr miss latency
system.cpu0.icache.tags.pwrStateResidencyTicks::UNDEFINED 157606736000                       # Cumulative time (in ticks) in various power states
system.cpu0.icache.tags.replacements           374654                       # number of replacements
system.cpu0.icache.tags.tagsinuse          255.982239                       # Cycle average of tags in use
system.cpu0.icache.tags.total_refs           25739981                       # Total number of references to valid blocks.
system.cpu0.icache.tags.sampled_refs           374910                       # Sample count of references to valid blocks.
system.cpu0.icache.tags.avg_refs            68.656427                       # Average number of references to valid blocks.
system.cpu0.icache.tags.warmup_cycle         43061500                       # Cycle when the warmup percentage was hit.
system.cpu0.icache.tags.occ_blocks::cpu0.inst   255.982239                       # Average occupied blocks per requestor
system.cpu0.icache.tags.occ_percent::cpu0.inst     0.999931                       # Average percentage of cache occupancy
system.cpu0.icache.tags.occ_percent::total     0.999931                       # Average percentage of cache occupancy
system.cpu0.icache.tags.occ_task_id_blocks::1024          256                       # Occupied blocks per task id
system.cpu0.icache.tags.age_task_id_blocks_1024::0           96                       # Occupied blocks per task id
system.cpu0.icache.tags.age_task_id_blocks_1024::1          135                       # Occupied blocks per task id
[...]
system.l2.overall_mshr_miss_rate::cpu3.inst     0.008761                       # mshr miss rate for overall accesses
system.l2.overall_mshr_miss_rate::cpu3.data     0.399215                       # mshr miss rate for overall accesses
system.l2.overall_mshr_miss_rate::total      0.022218                       # mshr miss rate for overall accesses
system.l2.UpgradeReq_avg_mshr_miss_latency::cpu0.data 21122.641509                       # average UpgradeReq mshr miss latency
system.l2.UpgradeReq_avg_mshr_miss_latency::cpu1.data        21500                       # average UpgradeReq mshr miss latency
system.l2.UpgradeReq_avg_mshr_miss_latency::cpu2.data 21318.181818                       # average UpgradeReq mshr miss latency
system.l2.UpgradeReq_avg_mshr_miss_latency::cpu3.data 21277.777778                       # average UpgradeReq mshr miss latency
system.l2.UpgradeReq_avg_mshr_miss_latency::total        21220                       # average UpgradeReq mshr miss latency
system.l2.SCUpgradeReq_avg_mshr_miss_latency::cpu0.data 21429.292929                       # average SCUpgradeReq mshr miss latency
system.l2.SCUpgradeReq_avg_mshr_miss_latency::cpu1.data 21576.923077                       # average SCUpgradeReq mshr miss latency
system.l2.SCUpgradeReq_avg_mshr_miss_latency::cpu2.data 21409.090909                       # average SCUpgradeReq mshr miss latency
system.l2.SCUpgradeReq_avg_mshr_miss_latency::cpu3.data 21466.346154                       # average SCUpgradeReq mshr miss latency
system.l2.SCUpgradeReq_avg_mshr_miss_latency::total 21456.106870                       # average SCUpgradeReq mshr miss latency
system.l2.ReadExReq_avg_mshr_miss_latency::cpu0.data 51329.753632                       # average ReadExReq mshr miss latency
system.l2.ReadExReq_avg_mshr_miss_latency::cpu1.data 51538.079470                       # average ReadExReq mshr miss latency
system.l2.ReadExReq_avg_mshr_miss_latency::cpu2.data 51763.485477                       # average ReadExReq mshr miss latency
system.l2.ReadExReq_avg_mshr_miss_latency::cpu3.data 51457.843155                       # average ReadExReq mshr miss latency
system.l2.ReadExReq_avg_mshr_miss_latency::total 51509.315748                       # average ReadExReq mshr miss latency
system.l2.ReadCleanReq_avg_mshr_miss_latency::cpu0.inst 51328.272157                       # average ReadCleanReq mshr miss latency
system.l2.ReadCleanReq_avg_mshr_miss_latency::cpu1.inst 52303.404930                       # average ReadCleanReq mshr miss latency
system.l2.ReadCleanReq_avg_mshr_miss_latency::cpu2.inst 52049.672414                       # average ReadCleanReq mshr miss latency
system.l2.ReadCleanReq_avg_mshr_miss_latency::cpu3.inst 52240.882917                       # average ReadCleanReq mshr miss latency
system.l2.ReadCleanReq_avg_mshr_miss_latency::total 51618.362556                       # average ReadCleanReq mshr miss latency
system.l2.ReadSharedReq_avg_mshr_miss_latency::cpu0.data 51676.159718                       # average ReadSharedReq mshr miss latency
system.l2.ReadSharedReq_avg_mshr_miss_latency::cpu1.data 51963.268366                       # average ReadSharedReq mshr miss latency
system.l2.ReadSharedReq_avg_mshr_miss_latency::cpu2.data 52039.256198                       # average ReadSharedReq mshr miss latency
system.l2.ReadSharedReq_avg_mshr_miss_latency::cpu3.data 52104.761905                       # average ReadSharedReq mshr miss latency
system.l2.ReadSharedReq_avg_mshr_miss_latency::total 51863.987849                       # average ReadSharedReq mshr miss latency
system.l2.demand_avg_mshr_miss_latency::cpu0.inst 51328.272157                       # average overall mshr miss latency
system.l2.demand_avg_mshr_miss_latency::cpu0.data 51509.281802                       # average overall mshr miss latency
system.l2.demand_avg_mshr_miss_latency::cpu1.inst 52303.404930                       # average overall mshr miss latency
system.l2.demand_avg_mshr_miss_latency::cpu1.data 51689.333333                       # average overall mshr miss latency
system.l2.demand_avg_mshr_miss_latency::cpu2.inst 52049.672414                       # average overall mshr miss latency
system.l2.demand_avg_mshr_miss_latency::cpu2.data 51867.167271                       # average overall mshr miss latency
system.l2.demand_avg_mshr_miss_latency::cpu3.inst 52240.882917                       # average overall mshr miss latency
system.l2.demand_avg_mshr_miss_latency::cpu3.data 51666.462531                       # average overall mshr miss latency
system.l2.demand_avg_mshr_miss_latency::total 51636.996479                       # average overall mshr miss latency
system.l2.overall_avg_mshr_miss_latency::cpu0.inst 51328.272157                       # average overall mshr miss latency
system.l2.overall_avg_mshr_miss_latency::cpu0.data 51509.281802                       # average overall mshr miss latency
system.l2.overall_avg_mshr_miss_latency::cpu1.inst 52303.404930                       # average overall mshr miss latency
system.l2.overall_avg_mshr_miss_latency::cpu1.data 51689.333333                       # average overall mshr miss latency
system.l2.overall_avg_mshr_miss_latency::cpu2.inst 52049.672414                       # average overall mshr miss latency
system.l2.overall_avg_mshr_miss_latency::cpu2.data 51867.167271                       # average overall mshr miss latency
system.l2.overall_avg_mshr_miss_latency::cpu3.inst 52240.882917                       # average overall mshr miss latency
system.l2.overall_avg_mshr_miss_latency::cpu3.data 51666.462531                       # average overall mshr miss latency
system.l2.overall_avg_mshr_miss_latency::total 51636.996479                       # average overall mshr miss latency
system.membus.snoop_filter.tot_requests         38784                       # Total number of requests made to the snoop filter.
system.membus.snoop_filter.hit_single_requests        22954                       # Number of requests hitting in the snoop filter with a single holder of the requested data.
system.membus.snoop_filter.hit_multi_requests            0                       # Number of requests hitting in the snoop filter with multiple (>1) holders of the requested data.
system.membus.snoop_filter.tot_snoops               0                       # Total number of snoops made to the snoop filter.
system.membus.snoop_filter.hit_single_snoops            0                       # Number of snoops hitting in the snoop filter with a single holder of the requested data.
system.membus.snoop_filter.hit_multi_snoops            0                       # Number of snoops hitting in the snoop filter with multiple (>1) holders of the requested data.
system.membus.pwrStateResidencyTicks::UNDEFINED 157606736000                       # Cumulative time (in ticks) in various power states
system.membus.trans_dist::ReadResp              12792                       # Transaction distribution
system.membus.trans_dist::WritebackDirty         5004                       # Transaction distribution
system.membus.trans_dist::CleanEvict             8103                       # Transaction distribution
system.membus.trans_dist::UpgradeReq             1664                       # Transaction distribution
system.membus.trans_dist::SCUpgradeReq           4596                       # Transaction distribution
system.membus.trans_dist::ReadExReq              5131                       # Transaction distribution
system.membus.trans_dist::ReadExResp             5095                       # Transaction distribution
system.membus.trans_dist::ReadSharedReq         12792                       # Transaction distribution
system.membus.pkt_count_system.l2.mem_side::system.physmem.port        55177                       # Packet count per connected master and slave (bytes)
system.membus.pkt_count::total                  55177                       # Packet count per connected master and slave (bytes)
system.membus.pkt_size_system.l2.mem_side::system.physmem.port      1465024                       # Cumulative packet size per connected master and slave (bytes)
system.membus.pkt_size::total                 1465024                       # Cumulative packet size per connected master and slave (bytes)
system.membus.snoops                             5930                       # Total snoops (count)
system.membus.snoopTraffic                          0                       # Total snoop traffic (bytes)
system.membus.snoop_fanout::samples             25464                       # Request fanout histogram
system.membus.snoop_fanout::mean                    0                       # Request fanout histogram
system.membus.snoop_fanout::stdev                   0                       # Request fanout histogram
system.membus.snoop_fanout::underflows              0      0.00%      0.00% # Request fanout histogram
system.membus.snoop_fanout::0                   25464    100.00%    100.00% # Request fanout histogram
system.membus.snoop_fanout::1                       0      0.00%    100.00% # Request fanout histogram
system.membus.snoop_fanout::overflows               0      0.00%    100.00% # Request fanout histogram
system.membus.snoop_fanout::min_value               0                       # Request fanout histogram
system.membus.snoop_fanout::max_value               0                       # Request fanout histogram
system.membus.snoop_fanout::total               25464                       # Request fanout histogram
system.membus.reqLayer0.occupancy            64411713                       # Layer occupancy (ticks)
system.membus.reqLayer0.utilization               0.0                       # Layer utilization (%)
system.membus.respLayer1.occupancy           89435000                       # Layer occupancy (ticks)
system.membus.respLayer1.utilization              0.1                       # Layer utilization (%)
system.tol2bus.snoop_filter.tot_requests      1625989                       # Total number of requests made to the snoop filter.
system.tol2bus.snoop_filter.hit_single_requests       514264                       # Number of requests hitting in the snoop filter with a single holder of the requested data.
system.tol2bus.snoop_filter.hit_multi_requests       750396                       # Number of requests hitting in the snoop filter with multiple (>1) holders of the requested data.
system.tol2bus.snoop_filter.tot_snoops          12875                       # Total number of snoops made to the snoop filter.
system.tol2bus.snoop_filter.hit_single_snoops         8629                       # Number of snoops hitting in the snoop filter with a single holder of the requested data.
system.tol2bus.snoop_filter.hit_multi_snoops         4246                       # Number of snoops hitting in the snoop filter with multiple (>1) holders of the requested data.
system.tol2bus.pwrStateResidencyTicks::UNDEFINED 157606736000                       # Cumulative time (in ticks) in various power states
system.tol2bus.trans_dist::ReadResp            800561                       # Transaction distribution
system.tol2bus.trans_dist::WritebackDirty        18980                       # Transaction distribution
system.tol2bus.trans_dist::WritebackClean       781246                       # Transaction distribution
system.tol2bus.trans_dist::CleanEvict           27664                       # Transaction distribution
system.tol2bus.trans_dist::UpgradeReq            1932                       # Transaction distribution
system.tol2bus.trans_dist::SCUpgradeReq          5175                       # Transaction distribution
system.tol2bus.trans_dist::UpgradeResp           7107                       # Transaction distribution
system.tol2bus.trans_dist::SCUpgradeFailReq           23                       # Transaction distribution
system.tol2bus.trans_dist::UpgradeFailResp           23                       # Transaction distribution
system.tol2bus.trans_dist::ReadExReq            14910                       # Transaction distribution
system.tol2bus.trans_dist::ReadExResp           14910                       # Transaction distribution
system.tol2bus.trans_dist::ReadCleanReq        782274                       # Transaction distribution
system.tol2bus.trans_dist::ReadSharedReq        18287                       # Transaction distribution
system.tol2bus.pkt_count_system.cpu0.icache.mem_side::system.l2.cpu_side      1124475                       # Packet count per connected master and slave (bytes)
system.tol2bus.pkt_count_system.cpu0.dcache.mem_side::system.l2.cpu_side        39393                       # Packet count per connected master and slave (bytes)
system.tol2bus.pkt_count_system.cpu1.icache.mem_side::system.l2.cpu_side       432273                       # Packet count per connected master and slave (bytes)
system.tol2bus.pkt_count_system.cpu1.dcache.mem_side::system.l2.cpu_side        14329                       # Packet count per connected master and slave (bytes)
system.tol2bus.pkt_count_system.cpu2.icache.mem_side::system.l2.cpu_side       432503                       # Packet count per connected master and slave (bytes)
system.tol2bus.pkt_count_system.cpu2.dcache.mem_side::system.l2.cpu_side        14345                       # Packet count per connected master and slave (bytes)
system.tol2bus.pkt_count_system.cpu3.icache.mem_side::system.l2.cpu_side       356538                       # Packet count per connected master and slave (bytes)
system.tol2bus.pkt_count_system.cpu3.dcache.mem_side::system.l2.cpu_side        18588                       # Packet count per connected master and slave (bytes)
system.tol2bus.pkt_count::total               2432444                       # Packet count per connected master and slave (bytes)
system.tol2bus.pkt_size_system.cpu0.icache.mem_side::system.l2.cpu_side     47972096                       # Cumulative packet size per connected master and slave (bytes)
system.tol2bus.pkt_size_system.cpu0.dcache.mem_side::system.l2.cpu_side      1243584                       # Cumulative packet size per connected master and slave (bytes)
system.tol2bus.pkt_size_system.cpu1.icache.mem_side::system.l2.cpu_side     18438080                       # Cumulative packet size per connected master and slave (bytes)
system.tol2bus.pkt_size_system.cpu1.dcache.mem_side::system.l2.cpu_side       359936                       # Cumulative packet size per connected master and slave (bytes)
system.tol2bus.pkt_size_system.cpu2.icache.mem_side::system.l2.cpu_side     18448000                       # Cumulative packet size per connected master and slave (bytes)
system.tol2bus.pkt_size_system.cpu2.dcache.mem_side::system.l2.cpu_side       368128                       # Cumulative packet size per connected master and slave (bytes)
system.tol2bus.pkt_size_system.cpu3.icache.mem_side::system.l2.cpu_side     15206784                       # Cumulative packet size per connected master and slave (bytes)
system.tol2bus.pkt_size_system.cpu3.dcache.mem_side::system.l2.cpu_side       393088                       # Cumulative packet size per connected master and slave (bytes)
system.tol2bus.pkt_size::total              102429696                       # Cumulative packet size per connected master and slave (bytes)
system.tol2bus.snoops                           40648                       # Total snoops (count)
system.tol2bus.snoopTraffic                    976384                       # Total snoop traffic (bytes)
system.tol2bus.snoop_fanout::samples           847103                       # Request fanout histogram
system.tol2bus.snoop_fanout::mean            1.146522                       # Request fanout histogram
system.tol2bus.snoop_fanout::stdev           1.266958                       # Request fanout histogram
system.tol2bus.snoop_fanout::underflows             0      0.00%      0.00% # Request fanout histogram
system.tol2bus.snoop_fanout::0                 372975     44.03%     44.03% # Request fanout histogram
system.tol2bus.snoop_fanout::1                 170230     20.10%     64.13% # Request fanout histogram
system.tol2bus.snoop_fanout::2                 144340     17.04%     81.16% # Request fanout histogram
system.tol2bus.snoop_fanout::3                 143426     16.93%     98.10% # Request fanout histogram
system.tol2bus.snoop_fanout::4                   6003      0.71%     98.80% # Request fanout histogram
system.tol2bus.snoop_fanout::5                   4958      0.59%     99.39% # Request fanout histogram
system.tol2bus.snoop_fanout::6                   2977      0.35%     99.74% # Request fanout histogram
system.tol2bus.snoop_fanout::7                   2182      0.26%    100.00% # Request fanout histogram
system.tol2bus.snoop_fanout::8                     12      0.00%    100.00% # Request fanout histogram
system.tol2bus.snoop_fanout::9                      0      0.00%    100.00% # Request fanout histogram
system.tol2bus.snoop_fanout::10                     0      0.00%    100.00% # Request fanout histogram
system.tol2bus.snoop_fanout::11                     0      0.00%    100.00% # Request fanout histogram
system.tol2bus.snoop_fanout::12                     0      0.00%    100.00% # Request fanout histogram
system.tol2bus.snoop_fanout::13                     0      0.00%    100.00% # Request fanout histogram
system.tol2bus.snoop_fanout::14                     0      0.00%    100.00% # Request fanout histogram
system.tol2bus.snoop_fanout::15                     0      0.00%    100.00% # Request fanout histogram
system.tol2bus.snoop_fanout::16                     0      0.00%    100.00% # Request fanout histogram
system.tol2bus.snoop_fanout::overflows              0      0.00%    100.00% # Request fanout histogram
system.tol2bus.snoop_fanout::min_value              0                       # Request fanout histogram
system.tol2bus.snoop_fanout::max_value              8                       # Request fanout histogram
system.tol2bus.snoop_fanout::total             847103                       # Request fanout histogram
system.tol2bus.reqLayer0.occupancy         1608230971                       # Layer occupancy (ticks)
system.tol2bus.reqLayer0.utilization              1.0                       # Layer utilization (%)
system.tol2bus.respLayer0.occupancy         562640919                       # Layer occupancy (ticks)
system.tol2bus.respLayer0.utilization             0.4                       # Layer utilization (%)
system.tol2bus.respLayer1.occupancy          22871353                       # Layer occupancy (ticks)
system.tol2bus.respLayer1.utilization             0.0                       # Layer utilization (%)
system.tol2bus.respLayer4.occupancy         216496520                       # Layer occupancy (ticks)
system.tol2bus.respLayer4.utilization             0.1                       # Layer utilization (%)
system.tol2bus.respLayer5.occupancy           8712372                       # Layer occupancy (ticks)
system.tol2bus.respLayer5.utilization             0.0                       # Layer utilization (%)
system.tol2bus.respLayer8.occupancy         216632465                       # Layer occupancy (ticks)
system.tol2bus.respLayer8.utilization             0.1                       # Layer utilization (%)
system.tol2bus.respLayer9.occupancy           8577885                       # Layer occupancy (ticks)
system.tol2bus.respLayer9.utilization             0.0                       # Layer utilization (%)
system.tol2bus.respLayer12.occupancy        178647484                       # Layer occupancy (ticks)
system.tol2bus.respLayer12.utilization            0.1                       # Layer utilization (%)
system.tol2bus.respLayer13.occupancy         13443893                       # Layer occupancy (ticks)
system.tol2bus.respLayer13.utilization            0.0                       # Layer utilization (%)

---------- End Simulation Statistics   ----------
