
---------- Begin Simulation Statistics ----------
sim_seconds                                  0.089645                       # Number of seconds simulated
sim_ticks                                 89645078000                       # Number of ticks simulated
final_tick                                89645078000                       # Number of ticks from beginning of simulation (restored from checkpoints and never reset)
sim_freq                                 1000000000000                       # Frequency of simulated ticks
host_inst_rate                                 245929                       # Simulator instruction rate (inst/s)
host_op_rate                                   270612                       # Simulator op (including micro ops) rate (op/s)
host_tick_rate                               29191051                       # Simulator tick rate (ticks/s)
host_mem_usage                                 725648                       # Number of bytes of host memory used
host_seconds                                  3070.98                       # Real time elapsed on the host
sim_insts                                   755242106                       # Number of instructions simulated
sim_ops                                     831044247                       # Number of ops (including micro ops) simulated
system.voltage_domain.voltage                       1                       # Voltage in Volts
system.clk_domain.clock                          1000                       # Clock period in ticks
system.physmem.pwrStateResidencyTicks::UNDEFINED  89645078000                       # Cumulative time (in ticks) in various power states
system.physmem.bytes_read::cpu0.inst           235648                       # Number of bytes read from this memory
system.physmem.bytes_read::cpu0.data           210496                       # Number of bytes read from this memory
system.physmem.bytes_read::cpu1.inst            78272                       # Number of bytes read from this memory
system.physmem.bytes_read::cpu1.data           117632                       # Number of bytes read from this memory
system.physmem.bytes_read::cpu2.inst           138560                       # Number of bytes read from this memory
system.physmem.bytes_read::cpu2.data           113856                       # Number of bytes read from this memory
system.physmem.bytes_read::cpu3.inst           131264                       # Number of bytes read from this memory
system.physmem.bytes_read::cpu3.data           123968                       # Number of bytes read from this memory
system.physmem.bytes_read::cpu4.inst           168448                       # Number of bytes read from this memory
system.physmem.bytes_read::cpu4.data           140928                       # Number of bytes read from this memory
system.physmem.bytes_read::cpu5.inst           149120                       # Number of bytes read from this memory
system.physmem.bytes_read::cpu5.data           169792                       # Number of bytes read from this memory
system.physmem.bytes_read::cpu6.inst           125120                       # Number of bytes read from this memory
system.physmem.bytes_read::cpu6.data           150272                       # Number of bytes read from this memory
system.physmem.bytes_read::cpu7.inst           142464                       # Number of bytes read from this memory
system.physmem.bytes_read::cpu7.data            80384                       # Number of bytes read from this memory
system.physmem.bytes_read::total              2276224                       # Number of bytes read from this memory
system.physmem.bytes_inst_read::cpu0.inst       235648                       # Number of instructions bytes read from this memory
system.physmem.bytes_inst_read::cpu1.inst        78272                       # Number of instructions bytes read from this memory
system.physmem.bytes_inst_read::cpu2.inst       138560                       # Number of instructions bytes read from this memory
system.physmem.bytes_inst_read::cpu3.inst       131264                       # Number of instructions bytes read from this memory
system.physmem.bytes_inst_read::cpu4.inst       168448                       # Number of instructions bytes read from this memory
system.physmem.bytes_inst_read::cpu5.inst       149120                       # Number of instructions bytes read from this memory
system.physmem.bytes_inst_read::cpu6.inst       125120                       # Number of instructions bytes read from this memory
system.physmem.bytes_inst_read::cpu7.inst       142464                       # Number of instructions bytes read from this memory
system.physmem.bytes_inst_read::total         1168896                       # Number of instructions bytes read from this memory
system.physmem.bytes_written::writebacks       530560                       # Number of bytes written to this memory
system.physmem.bytes_written::total            530560                       # Number of bytes written to this memory
system.physmem.num_reads::cpu0.inst              3682                       # Number of read requests responded to by this memory
system.physmem.num_reads::cpu0.data              3289                       # Number of read requests responded to by this memory
system.physmem.num_reads::cpu1.inst              1223                       # Number of read requests responded to by this memory
system.physmem.num_reads::cpu1.data              1838                       # Number of read requests responded to by this memory
system.physmem.num_reads::cpu2.inst              2165                       # Number of read requests responded to by this memory
system.physmem.num_reads::cpu2.data              1779                       # Number of read requests responded to by this memory
system.physmem.num_reads::cpu3.inst              2051                       # Number of read requests responded to by this memory
system.physmem.num_reads::cpu3.data              1937                       # Number of read requests responded to by this memory
system.physmem.num_reads::cpu4.inst              2632                       # Number of read requests responded to by this memory
system.physmem.num_reads::cpu4.data              2202                       # Number of read requests responded to by this memory
system.physmem.num_reads::cpu5.inst              2330                       # Number of read requests responded to by this memory
system.physmem.num_reads::cpu5.data              2653                       # Number of read requests responded to by this memory
system.physmem.num_reads::cpu6.inst              1955                       # Number of read requests responded to by this memory
system.physmem.num_reads::cpu6.data              2348                       # Number of read requests responded to by this memory
system.physmem.num_reads::cpu7.inst              2226                       # Number of read requests responded to by this memory
system.physmem.num_reads::cpu7.data              1256                       # Number of read requests responded to by this memory
system.physmem.num_reads::total                 35566                       # Number of read requests responded to by this memory
system.physmem.num_writes::writebacks            8290                       # Number of write requests responded to by this memory
system.physmem.num_writes::total                 8290                       # Number of write requests responded to by this memory
system.physmem.bw_read::cpu0.inst             2628678                       # Total read bandwidth from this memory (bytes/s)
system.physmem.bw_read::cpu0.data             2348104                       # Total read bandwidth from this memory (bytes/s)
system.physmem.bw_read::cpu1.inst              873132                       # Total read bandwidth from this memory (bytes/s)
system.physmem.bw_read::cpu1.data             1312197                       # Total read bandwidth from this memory (bytes/s)
system.physmem.bw_read::cpu2.inst             1545651                       # Total read bandwidth from this memory (bytes/s)
system.physmem.bw_read::cpu2.data             1270075                       # Total read bandwidth from this memory (bytes/s)
system.physmem.bw_read::cpu3.inst             1464263                       # Total read bandwidth from this memory (bytes/s)
system.physmem.bw_read::cpu3.data             1382876                       # Total read bandwidth from this memory (bytes/s)
system.physmem.bw_read::cpu4.inst             1879055                       # Total read bandwidth from this memory (bytes/s)
system.physmem.bw_read::cpu4.data             1572066                       # Total read bandwidth from this memory (bytes/s)
system.physmem.bw_read::cpu5.inst             1663449                       # Total read bandwidth from this memory (bytes/s)
system.physmem.bw_read::cpu5.data             1894047                       # Total read bandwidth from this memory (bytes/s)
system.physmem.bw_read::cpu6.inst             1395726                       # Total read bandwidth from this memory (bytes/s)
system.physmem.bw_read::cpu6.data             1676300                       # Total read bandwidth from this memory (bytes/s)
system.physmem.bw_read::cpu7.inst             1589200                       # Total read bandwidth from this memory (bytes/s)
system.physmem.bw_read::cpu7.data              896692                       # Total read bandwidth from this memory (bytes/s)
system.physmem.bw_read::total                25391511                       # Total read bandwidth from this memory (bytes/s)
system.physmem.bw_inst_read::cpu0.inst        2628678                       # Instruction read bandwidth from this memory (bytes/s)
system.physmem.bw_inst_read::cpu1.inst         873132                       # Instruction read bandwidth from this memory (bytes/s)
system.physmem.bw_inst_read::cpu2.inst        1545651                       # Instruction read bandwidth from this memory (bytes/s)
system.physmem.bw_inst_read::cpu3.inst        1464263                       # Instruction read bandwidth from this memory (bytes/s)
system.physmem.bw_inst_read::cpu4.inst        1879055                       # Instruction read bandwidth from this memory (bytes/s)
system.physmem.bw_inst_read::cpu5.inst        1663449                       # Instruction read bandwidth from this memory (bytes/s)
system.physmem.bw_inst_read::cpu6.inst        1395726                       # Instruction read bandwidth from this memory (bytes/s)
system.physmem.bw_inst_read::cpu7.inst        1589200                       # Instruction read bandwidth from this memory (bytes/s)
system.physmem.bw_inst_read::total           13039154                       # Instruction read bandwidth from this memory (bytes/s)
system.physmem.bw_write::writebacks           5918451                       # Write bandwidth from this memory (bytes/s)
system.physmem.bw_write::total                5918451                       # Write bandwidth from this memory (bytes/s)
system.physmem.bw_total::writebacks           5918451                       # Total bandwidth to/from this memory (bytes/s)
system.physmem.bw_total::cpu0.inst            2628678                       # Total bandwidth to/from this memory (bytes/s)
system.physmem.bw_total::cpu0.data            2348104                       # Total bandwidth to/from this memory (bytes/s)
system.physmem.bw_total::cpu1.inst             873132                       # Total bandwidth to/from this memory (bytes/s)
system.physmem.bw_total::cpu1.data            1312197                       # Total bandwidth to/from this memory (bytes/s)
system.physmem.bw_total::cpu2.inst            1545651                       # Total bandwidth to/from this memory (bytes/s)
system.physmem.bw_total::cpu2.data            1270075                       # Total bandwidth to/from this memory (bytes/s)
system.physmem.bw_total::cpu3.inst            1464263                       # Total bandwidth to/from this memory (bytes/s)
system.physmem.bw_total::cpu3.data            1382876                       # Total bandwidth to/from this memory (bytes/s)
system.physmem.bw_total::cpu4.inst            1879055                       # Total bandwidth to/from this memory (bytes/s)
system.physmem.bw_total::cpu4.data            1572066                       # Total bandwidth to/from this memory (bytes/s)
system.physmem.bw_total::cpu5.inst            1663449                       # Total bandwidth to/from this memory (bytes/s)
system.physmem.bw_total::cpu5.data            1894047                       # Total bandwidth to/from this memory (bytes/s)
system.physmem.bw_total::cpu6.inst            1395726                       # Total bandwidth to/from this memory (bytes/s)
system.physmem.bw_total::cpu6.data            1676300                       # Total bandwidth to/from this memory (bytes/s)
system.physmem.bw_total::cpu7.inst            1589200                       # Total bandwidth to/from this memory (bytes/s)
system.physmem.bw_total::cpu7.data             896692                       # Total bandwidth to/from this memory (bytes/s)
system.physmem.bw_total::total               31309962                       # Total bandwidth to/from this memory (bytes/s)
system.pwrStateResidencyTicks::UNDEFINED  89645078000                       # Cumulative time (in ticks) in various power states
system.cpu0.branchPred.lookups               18348466                       # Number of BP lookups
system.cpu0.branchPred.condPredicted         11248792                       # Number of conditional branches predicted
system.cpu0.branchPred.condIncorrect           437840                       # Number of conditional branches incorrect
system.cpu0.branchPred.BTBLookups             9922541                       # Number of BTB lookups
system.cpu0.branchPred.BTBHits                8657991                       # Number of BTB hits
system.cpu0.branchPred.BTBCorrect                   0                       # Number of correct BTB predictions (this stat may not work properly.
system.cpu0.branchPred.BTBHitPct            87.255785                       # BTB Hit Percentage
system.cpu0.branchPred.usedRAS                2280515                       # Number of times the RAS was used to get a target.
system.cpu0.branchPred.RASInCorrect             40666                       # Number of incorrect RAS predictions.
system.cpu0.branchPred.indirectLookups         568324                       # Number of indirect predictor lookups.
system.cpu0.branchPred.indirectHits            564282                       # Number of indirect target hits.
system.cpu0.branchPred.indirectMisses            4042                       # Number of indirect misses.
system.cpu0.branchPredindirectMispredicted         9604                       # Number of mispredicted indirect branches.
system.cpu0.dstage2_mmu.stage2_tlb.walker.pwrStateResidencyTicks::UNDEFINED  89645078000                       # Cumulative time (in ticks) in various power states
system.cpu0.dstage2_mmu.stage2_tlb.walker.walks            0                       # Table walker walks requested
system.cpu0.dstage2_mmu.stage2_tlb.walker.walkRequestOrigin_Requested::Data            0                       # Table walker requests started/completed, data/inst
system.cpu0.dstage2_mmu.stage2_tlb.walker.walkRequestOrigin_Requested::Inst            0                       # Table walker requests started/completed, data/inst
system.cpu0.dstage2_mmu.stage2_tlb.walker.walkRequestOrigin_Requested::total            0                       # Table walker requests started/completed, data/inst
system.cpu0.dstage2_mmu.stage2_tlb.walker.walkRequestOrigin_Completed::Data            0                       # Table walker requests started/completed, data/inst
system.cpu0.dstage2_mmu.stage2_tlb.walker.walkRequestOrigin_Completed::Inst            0                       # Table walker requests started/completed, data/inst
system.cpu0.dstage2_mmu.stage2_tlb.walker.walkRequestOrigin_Completed::total            0                       # Table walker requests started/completed, data/inst
system.cpu0.dstage2_mmu.stage2_tlb.walker.walkRequestOrigin::total            0                       # Table walker requests started/completed, data/inst
system.cpu0.dstage2_mmu.stage2_tlb.inst_hits            0                       # ITB inst hits
system.cpu0.dstage2_mmu.stage2_tlb.inst_misses            0                       # ITB inst misses
system.cpu0.dstage2_mmu.stage2_tlb.read_hits            0                       # DTB read hits
system.cpu0.dstage2_mmu.stage2_tlb.read_misses            0                       # DTB read misses
system.cpu0.dstage2_mmu.stage2_tlb.write_hits            0                       # DTB write hits
system.cpu0.dstage2_mmu.stage2_tlb.write_misses            0                       # DTB write misses
system.cpu0.dstage2_mmu.stage2_tlb.flush_tlb            0                       # Number of times complete TLB was flushed
system.cpu0.dstage2_mmu.stage2_tlb.flush_tlb_mva            0                       # Number of times TLB was flushed by MVA
system.cpu0.dstage2_mmu.stage2_tlb.flush_tlb_mva_asid            0                       # Number of times TLB was flushed by MVA & ASID
system.cpu0.dstage2_mmu.stage2_tlb.flush_tlb_asid            0                       # Number of times TLB was flushed by ASID
system.cpu0.dstage2_mmu.stage2_tlb.flush_entries            0                       # Number of entries that have been flushed from TLB
system.cpu0.dstage2_mmu.stage2_tlb.align_faults            0                       # Number of TLB faults due to alignment restrictions
system.cpu0.dstage2_mmu.stage2_tlb.prefetch_faults            0                       # Number of TLB faults due to prefetch
system.cpu0.dstage2_mmu.stage2_tlb.domain_faults            0                       # Number of TLB faults due to domain restrictions
system.cpu0.dstage2_mmu.stage2_tlb.perms_faults            0                       # Number of TLB faults due to permissions restrictions
system.cpu0.dstage2_mmu.stage2_tlb.read_accesses            0                       # DTB read accesses
system.cpu0.dstage2_mmu.stage2_tlb.write_accesses            0                       # DTB write accesses
system.cpu0.dstage2_mmu.stage2_tlb.inst_accesses            0                       # ITB inst accesses
system.cpu0.dstage2_mmu.stage2_tlb.hits             0                       # DTB hits
system.cpu0.dstage2_mmu.stage2_tlb.misses            0                       # DTB misses
system.cpu0.dstage2_mmu.stage2_tlb.accesses            0                       # DTB accesses
system.cpu0.dtb.walker.pwrStateResidencyTicks::UNDEFINED  89645078000                       # Cumulative time (in ticks) in various power states
system.cpu0.dtb.walker.walks                        0                       # Table walker walks requested
system.cpu0.dtb.walker.walkRequestOrigin_Requested::Data            0                       # Table walker requests started/completed, data/inst
system.cpu0.dtb.walker.walkRequestOrigin_Requested::Inst            0                       # Table walker requests started/completed, data/inst
system.cpu0.dtb.walker.walkRequestOrigin_Requested::total            0                       # Table walker requests started/completed, data/inst
system.cpu0.dtb.walker.walkRequestOrigin_Completed::Data            0                       # Table walker requests started/completed, data/inst
system.cpu0.dtb.walker.walkRequestOrigin_Completed::Inst            0                       # Table walker requests started/completed, data/inst
system.cpu0.dtb.walker.walkRequestOrigin_Completed::total            0                       # Table walker requests started/completed, data/inst
system.cpu0.dtb.walker.walkRequestOrigin::total            0                       # Table walker requests started/completed, data/inst
system.cpu0.dtb.inst_hits                           0                       # ITB inst hits
system.cpu0.dtb.inst_misses                         0                       # ITB inst misses
system.cpu0.dtb.read_hits                           0                       # DTB read hits
system.cpu0.dtb.read_misses                         0                       # DTB read misses
system.cpu0.dtb.write_hits                          0                       # DTB write hits
system.cpu0.dtb.write_misses                        0                       # DTB write misses
system.cpu0.dtb.flush_tlb                           0                       # Number of times complete TLB was flushed
system.cpu0.dtb.flush_tlb_mva                       0                       # Number of times TLB was flushed by MVA
system.cpu0.dtb.flush_tlb_mva_asid                  0                       # Number of times TLB was flushed by MVA & ASID
system.cpu0.dtb.flush_tlb_asid                      0                       # Number of times TLB was flushed by ASID
system.cpu0.dtb.flush_entries                       0                       # Number of entries that have been flushed from TLB
system.cpu0.dtb.align_faults                        0                       # Number of TLB faults due to alignment restrictions
system.cpu0.dtb.prefetch_faults                     0                       # Number of TLB faults due to prefetch
system.cpu0.dtb.domain_faults                       0                       # Number of TLB faults due to domain restrictions
system.cpu0.dtb.perms_faults                        0                       # Number of TLB faults due to permissions restrictions
system.cpu0.dtb.read_accesses                       0                       # DTB read accesses
system.cpu0.dtb.write_accesses                      0                       # DTB write accesses
system.cpu0.dtb.inst_accesses                       0                       # ITB inst accesses
system.cpu0.dtb.hits                                0                       # DTB hits
system.cpu0.dtb.misses                              0                       # DTB misses
system.cpu0.dtb.accesses                            0                       # DTB accesses
system.cpu0.istage2_mmu.stage2_tlb.walker.pwrStateResidencyTicks::UNDEFINED  89645078000                       # Cumulative time (in ticks) in various power states
system.cpu0.istage2_mmu.stage2_tlb.walker.walks            0                       # Table walker walks requested
system.cpu0.istage2_mmu.stage2_tlb.walker.walkRequestOrigin_Requested::Data            0                       # Table walker requests started/completed, data/inst
system.cpu0.istage2_mmu.stage2_tlb.walker.walkRequestOrigin_Requested::Inst            0                       # Table walker requests started/completed, data/inst
system.cpu0.istage2_mmu.stage2_tlb.walker.walkRequestOrigin_Requested::total            0                       # Table walker requests started/completed, data/inst
system.cpu0.istage2_mmu.stage2_tlb.walker.walkRequestOrigin_Completed::Data            0                       # Table walker requests started/completed, data/inst
system.cpu0.istage2_mmu.stage2_tlb.walker.walkRequestOrigin_Completed::Inst            0                       # Table walker requests started/completed, data/inst
system.cpu0.istage2_mmu.stage2_tlb.walker.walkRequestOrigin_Completed::total            0                       # Table walker requests started/completed, data/inst
system.cpu0.istage2_mmu.stage2_tlb.walker.walkRequestOrigin::total            0                       # Table walker requests started/completed, data/inst
system.cpu0.istage2_mmu.stage2_tlb.inst_hits            0                       # ITB inst hits
system.cpu0.istage2_mmu.stage2_tlb.inst_misses            0                       # ITB inst misses
system.cpu0.istage2_mmu.stage2_tlb.read_hits            0                       # DTB read hits
system.cpu0.istage2_mmu.stage2_tlb.read_misses            0                       # DTB read misses
system.cpu0.istage2_mmu.stage2_tlb.write_hits            0                       # DTB write hits
system.cpu0.istage2_mmu.stage2_tlb.write_misses            0                       # DTB write misses
system.cpu0.istage2_mmu.stage2_tlb.flush_tlb            0                       # Number of times complete TLB was flushed
system.cpu0.istage2_mmu.stage2_tlb.flush_tlb_mva            0                       # Number of times TLB was flushed by MVA
system.cpu0.istage2_mmu.stage2_tlb.flush_tlb_mva_asid            0                       # Number of times TLB was flushed by MVA & ASID
system.cpu0.istage2_mmu.stage2_tlb.flush_tlb_asid            0                       # Number of times TLB was flushed by ASID
system.cpu0.istage2_mmu.stage2_tlb.flush_entries            0                       # Number of entries that have been flushed from TLB
system.cpu0.istage2_mmu.stage2_tlb.align_faults            0                       # Number of TLB faults due to alignment restrictions
system.cpu0.istage2_mmu.stage2_tlb.prefetch_faults            0                       # Number of TLB faults due to prefetch
system.cpu0.istage2_mmu.stage2_tlb.domain_faults            0                       # Number of TLB faults due to domain restrictions
system.cpu0.istage2_mmu.stage2_tlb.perms_faults            0                       # Number of TLB faults due to permissions restrictions
system.cpu0.istage2_mmu.stage2_tlb.read_accesses            0                       # DTB read accesses
system.cpu0.istage2_mmu.stage2_tlb.write_accesses            0                       # DTB write accesses
system.cpu0.istage2_mmu.stage2_tlb.inst_accesses            0                       # ITB inst accesses
system.cpu0.istage2_mmu.stage2_tlb.hits             0                       # DTB hits
system.cpu0.istage2_mmu.stage2_tlb.misses            0                       # DTB misses
system.cpu0.istage2_mmu.stage2_tlb.accesses            0                       # DTB accesses
system.cpu0.itb.walker.pwrStateResidencyTicks::UNDEFINED  89645078000                       # Cumulative time (in ticks) in various power states
system.cpu0.itb.walker.walks                        0                       # Table walker walks requested
system.cpu0.itb.walker.walkRequestOrigin_Requested::Data            0                       # Table walker requests started/completed, data/inst
system.cpu0.itb.walker.walkRequestOrigin_Requested::Inst            0                       # Table walker requests started/completed, data/inst
system.cpu0.itb.walker.walkRequestOrigin_Requested::total            0                       # Table walker requests started/completed, data/inst
system.cpu0.itb.walker.walkRequestOrigin_Completed::Data            0                       # Table walker requests started/completed, data/inst
system.cpu0.itb.walker.walkRequestOrigin_Completed::Inst            0                       # Table walker requests started/completed, data/inst
system.cpu0.itb.walker.walkRequestOrigin_Completed::total            0                       # Table walker requests started/completed, data/inst
system.cpu0.itb.walker.walkRequestOrigin::total            0                       # Table walker requests started/completed, data/inst
system.cpu0.itb.inst_hits                           0                       # ITB inst hits
system.cpu0.itb.inst_misses                         0                       # ITB inst misses
system.cpu0.itb.read_hits                           0                       # DTB read hits
system.cpu0.itb.read_misses                         0                       # DTB read misses
system.cpu0.itb.write_hits                          0                       # DTB write hits
system.cpu0.itb.write_misses                        0                       # DTB write misses
system.cpu0.itb.flush_tlb                           0                       # Number of times complete TLB was flushed
system.cpu0.itb.flush_tlb_mva                       0                       # Number of times TLB was flushed by MVA
system.cpu0.itb.flush_tlb_mva_asid                  0                       # Number of times TLB was flushed by MVA & ASID
system.cpu0.itb.flush_tlb_asid                      0                       # Number of times TLB was flushed by ASID
system.cpu0.itb.flush_entries                       0                       # Number of entries that have been flushed from TLB
system.cpu0.itb.align_faults                        0                       # Number of TLB faults due to alignment restrictions
system.cpu0.itb.prefetch_faults                     0                       # Number of TLB faults due to prefetch
system.cpu0.itb.domain_faults                       0                       # Number of TLB faults due to domain restrictions
system.cpu0.itb.perms_faults                        0                       # Number of TLB faults due to permissions restrictions
system.cpu0.itb.read_accesses                       0                       # DTB read accesses
system.cpu0.itb.write_accesses                      0                       # DTB write accesses
system.cpu0.itb.inst_accesses                       0                       # ITB inst accesses
system.cpu0.itb.hits                                0                       # DTB hits
system.cpu0.itb.misses                              0                       # DTB misses
system.cpu0.itb.accesses                            0                       # DTB accesses
system.cpu0.workload.num_syscalls              234468                       # Number of system calls
system.cpu0.pwrStateResidencyTicks::ON    89645078000                       # Cumulative time (in ticks) in various power states
system.cpu0.numCycles                        89645079                       # number of cpu cycles simulated
system.cpu0.numWorkItemsStarted                     0                       # number of work items this cpu started
system.cpu0.numWorkItemsCompleted                   0                       # number of work items this cpu completed
system.cpu0.fetch.icacheStallCycles          21594055                       # Number of cycles fetch is stalled on an Icache miss
system.cpu0.fetch.Insts                     102867576                       # Number of instructions fetch has processed
system.cpu0.fetch.Branches                   18348466                       # Number of branches that fetch encountered
system.cpu0.fetch.predictedBranches          11502788                       # Number of branches that fetch has predicted taken
system.cpu0.fetch.Cycles                     67496357                       # Number of cycles fetch has run and was not squashing or blocked
system.cpu0.fetch.SquashCycles                 883967                       # Number of cycles fetch has spent squashing
system.cpu0.fetch.MiscStallCycles                  12                       # Number of cycles fetch has spent waiting on interrupts, or bad addresses, or out of MSHRs
system.cpu0.fetch.PendingTrapStallCycles          432                       # Number of stall cycles due to pending traps
system.cpu0.fetch.CacheLines                 14284367                       # Number of cache lines fetched
system.cpu0.fetch.IcacheSquashes               105864                       # Number of outstanding Icache misses that were squashed
system.cpu0.fetch.rateDist::samples          89532839                       # Number of instructions fetched each cycle (Total)
system.cpu0.fetch.rateDist::mean             1.298200                       # Number of instructions fetched each cycle (Total)
system.cpu0.fetch.rateDist::stdev            0.895893                       # Number of instructions fetched each cycle (Total)
system.cpu0.fetch.rateDist::underflows              0      0.00%      0.00% # Number of instructions fetched each cycle (Total)
system.cpu0.fetch.rateDist::0                26562077     29.67%     29.67% # Number of instructions fetched each cycle (Total)
system.cpu0.fetch.rateDist::1                 9709991     10.85%     40.51% # Number of instructions fetched each cycle (Total)
system.cpu0.fetch.rateDist::2                53260771     59.49%    100.00% # Number of instructions fetched each cycle (Total)
system.cpu0.fetch.rateDist::overflows               0      0.00%    100.00% # Number of instructions fetched each cycle (Total)
system.cpu0.fetch.rateDist::min_value               0                       # Number of instructions fetched each cycle (Total)
system.cpu0.fetch.rateDist::max_value               2                       # Number of instructions fetched each cycle (Total)
system.cpu0.fetch.rateDist::total            89532839                       # Number of instructions fetched each cycle (Total)
system.cpu0.fetch.branchRate                 0.204679                       # Number of branch fetches per cycle
system.cpu0.fetch.rate                       1.147498                       # Number of inst fetches per cycle
system.cpu0.decode.IdleCycles                19057979                       # Number of cycles decode is idle
system.cpu0.decode.BlockedCycles             11144861                       # Number of cycles decode is blocked
system.cpu0.decode.RunCycles                 47550360                       # Number of cycles decode is running
system.cpu0.decode.UnblockCycles             11370739                       # Number of cycles decode is unblocking
system.cpu0.decode.SquashCycles                408900                       # Number of cycles decode is squashing
system.cpu0.decode.BranchResolved             4907485                       # Number of times decode resolved a branch
system.cpu0.decode.BranchMispred                33380                       # Number of times decode detected a branch misprediction
system.cpu0.decode.DecodedInsts             114158389                       # Number of instructions handled by decode
system.cpu0.decode.SquashedInsts                58361                       # Number of squashed instructions handled by decode
system.cpu0.rename.SquashCycles                408900                       # Number of cycles rename is squashing
system.cpu0.rename.IdleCycles                21567381                       # Number of cycles rename is idle
system.cpu0.rename.BlockCycles                1314543                       # Number of cycles rename is blocking
system.cpu0.rename.serializeStallCycles        554646                       # count of cycles rename stalled for serializing inst
system.cpu0.rename.RunCycles                 56379723                       # Number of cycles rename is running
system.cpu0.rename.UnblockCycles              9307646                       # Number of cycles rename is unblocking
system.cpu0.rename.RenamedInsts             113563455                       # Number of instructions processed by rename
system.cpu0.rename.IQFullEvents               7062417                       # Number of times rename has blocked due to IQ full
system.cpu0.rename.LQFullEvents                 55568                       # Number of times rename has blocked due to LQ full
system.cpu0.rename.SQFullEvents                  3747                       # Number of times rename has blocked due to SQ full
system.cpu0.rename.RenamedOperands          142513140                       # Number of destination operands rename has renamed
system.cpu0.rename.RenameLookups            524441970                       # Number of register rename lookups that rename has made
system.cpu0.rename.int_rename_lookups       144901392                       # Number of integer rename lookups
system.cpu0.rename.fp_rename_lookups               18                       # Number of floating rename lookups
system.cpu0.rename.CommittedMaps            124013068                       # Number of HB maps that are committed
system.cpu0.rename.UndoneMaps                18500072                       # Number of HB maps that are undone due to squashing
system.cpu0.rename.serializingInsts             21440                       # count of serializing insts renamed
system.cpu0.rename.tempSerializingInsts         10147                       # count of temporary serializing insts renamed
system.cpu0.rename.skidInsts                  9990832                       # count of insts added to the skid buffer
system.cpu0.memDep0.insertedLoads            14661049                       # Number of loads inserted to the mem dependence unit.
system.cpu0.memDep0.insertedStores            9273312                       # Number of stores inserted to the mem dependence unit.
system.cpu0.memDep0.conflictingLoads          4358182                       # Number of conflicting loads.
system.cpu0.memDep0.conflictingStores         1657557                       # Number of conflicting stores.
system.cpu0.iq.iqInstsAdded                 112390586                       # Number of instructions added to the IQ (excludes non-spec)
system.cpu0.iq.iqNonSpecInstsAdded              19160                       # Number of non-speculative instructions added to the IQ
system.cpu0.iq.iqInstsIssued                102385765                       # Number of instructions issued
system.cpu0.iq.iqSquashedInstsIssued          1408670                       # Number of squashed instructions issued
system.cpu0.iq.iqSquashedInstsExamined       11875891                       # Number of squashed instructions iterated over during squash; mainly for profiling
system.cpu0.iq.iqSquashedOperandsExamined     47321579                       # Number of squashed operands that are examined and possibly removed from graph
system.cpu0.iq.iqSquashedNonSpecRemoved           950                       # Number of squashed non-spec instructions that were removed
system.cpu0.iq.issued_per_cycle::samples     89532839                       # Number of insts issued each cycle
system.cpu0.iq.issued_per_cycle::mean        1.143555                       # Number of insts issued each cycle
system.cpu0.iq.issued_per_cycle::stdev       0.565006                       # Number of insts issued each cycle
system.cpu0.iq.issued_per_cycle::underflows            0      0.00%      0.00% # Number of insts issued each cycle
system.cpu0.iq.issued_per_cycle::0            8786935      9.81%      9.81% # Number of insts issued each cycle
system.cpu0.iq.issued_per_cycle::1           59106043     66.02%     75.83% # Number of insts issued each cycle
system.cpu0.iq.issued_per_cycle::2           21639861     24.17%    100.00% # Number of insts issued each cycle
system.cpu0.iq.issued_per_cycle::overflows            0      0.00%    100.00% # Number of insts issued each cycle
system.cpu0.iq.issued_per_cycle::min_value            0                       # Number of insts issued each cycle
system.cpu0.iq.issued_per_cycle::max_value            2                       # Number of insts issued each cycle
system.cpu0.iq.issued_per_cycle::total       89532839                       # Number of insts issued each cycle
system.cpu0.iq.fu_full::No_OpClass                  0      0.00%      0.00% # attempts to use FU when none available
system.cpu0.iq.fu_full::IntAlu               60753638     93.94%     93.94% # attempts to use FU when none available
system.cpu0.iq.fu_full::IntMult                     0      0.00%     93.94% # attempts to use FU when none available
system.cpu0.iq.fu_full::IntDiv                      0      0.00%     93.94% # attempts to use FU when none available
system.cpu0.iq.fu_full::FloatAdd                    0      0.00%     93.94% # attempts to use FU when none available
system.cpu0.iq.fu_full::FloatCmp                    0      0.00%     93.94% # attempts to use FU when none available
system.cpu0.iq.fu_full::FloatCvt                    0      0.00%     93.94% # attempts to use FU when none available
system.cpu0.iq.fu_full::FloatMult                   0      0.00%     93.94% # attempts to use FU when none available
system.cpu0.iq.fu_full::FloatMultAcc                0      0.00%     93.94% # attempts to use FU when none available
system.cpu0.iq.fu_full::FloatDiv                    0      0.00%     93.94% # attempts to use FU when none available
system.cpu0.iq.fu_full::FloatMisc                   0      0.00%     93.94% # attempts to use FU when none available
system.cpu0.iq.fu_full::FloatSqrt                   0      0.00%     93.94% # attempts to use FU when none available
system.cpu0.iq.fu_full::SimdAdd                     0      0.00%     93.94% # attempts to use FU when none available
system.cpu0.iq.fu_full::SimdAddAcc                  0      0.00%     93.94% # attempts to use FU when none available
system.cpu0.iq.fu_full::SimdAlu                     0      0.00%     93.94% # attempts to use FU when none available
system.cpu0.iq.fu_full::SimdCmp                     0      0.00%     93.94% # attempts to use FU when none available
system.cpu0.iq.fu_full::SimdCvt                     0      0.00%     93.94% # attempts to use FU when none available
system.cpu0.iq.fu_full::SimdMisc                    0      0.00%     93.94% # attempts to use FU when none available
system.cpu0.iq.fu_full::SimdMult                    0      0.00%     93.94% # attempts to use FU when none available
system.cpu0.iq.fu_full::SimdMultAcc                 0      0.00%     93.94% # attempts to use FU when none available
system.cpu0.iq.fu_full::SimdShift                   0      0.00%     93.94% # attempts to use FU when none available
system.cpu0.iq.fu_full::SimdShiftAcc                0      0.00%     93.94% # attempts to use FU when none available
system.cpu0.iq.fu_full::SimdSqrt                    0      0.00%     93.94% # attempts to use FU when none available
system.cpu0.iq.fu_full::SimdFloatAdd                0      0.00%     93.94% # attempts to use FU when none available
system.cpu0.iq.fu_full::SimdFloatAlu                0      0.00%     93.94% # attempts to use FU when none available
system.cpu0.iq.fu_full::SimdFloatCmp                0      0.00%     93.94% # attempts to use FU when none available
system.cpu0.iq.fu_full::SimdFloatCvt                0      0.00%     93.94% # attempts to use FU when none available
system.cpu0.iq.fu_full::SimdFloatDiv                0      0.00%     93.94% # attempts to use FU when none available
system.cpu0.iq.fu_full::SimdFloatMisc               0      0.00%     93.94% # attempts to use FU when none available
system.cpu0.iq.fu_full::SimdFloatMult               0      0.00%     93.94% # attempts to use FU when none available
system.cpu0.iq.fu_full::SimdFloatMultAcc            0      0.00%     93.94% # attempts to use FU when none available
system.cpu0.iq.fu_full::SimdFloatSqrt               0      0.00%     93.94% # attempts to use FU when none available
system.cpu0.iq.fu_full::MemRead               2469382      3.82%     97.76% # attempts to use FU when none available
system.cpu0.iq.fu_full::MemWrite              1448258      2.24%    100.00% # attempts to use FU when none available
system.cpu0.iq.fu_full::FloatMemRead                0      0.00%    100.00% # attempts to use FU when none available
system.cpu0.iq.fu_full::FloatMemWrite               0      0.00%    100.00% # attempts to use FU when none available
system.cpu0.iq.fu_full::IprAccess                   0      0.00%    100.00% # attempts to use FU when none available
system.cpu0.iq.fu_full::InstPrefetch                0      0.00%    100.00% # attempts to use FU when none available
system.cpu0.iq.FU_type_0::No_OpClass                0      0.00%      0.00% # Type of FU issued
system.cpu0.iq.FU_type_0::IntAlu             78843643     77.01%     77.01% # Type of FU issued
system.cpu0.iq.FU_type_0::IntMult              523611      0.51%     77.52% # Type of FU issued
system.cpu0.iq.FU_type_0::IntDiv                    0      0.00%     77.52% # Type of FU issued
system.cpu0.iq.FU_type_0::FloatAdd                  0      0.00%     77.52% # Type of FU issued
system.cpu0.iq.FU_type_0::FloatCmp                  0      0.00%     77.52% # Type of FU issued
system.cpu0.iq.FU_type_0::FloatCvt                  0      0.00%     77.52% # Type of FU issued
system.cpu0.iq.FU_type_0::FloatMult                 0      0.00%     77.52% # Type of FU issued
system.cpu0.iq.FU_type_0::FloatMultAcc              0      0.00%     77.52% # Type of FU issued
system.cpu0.iq.FU_type_0::FloatDiv                  0      0.00%     77.52% # Type of FU issued
system.cpu0.iq.FU_type_0::FloatMisc                 0      0.00%     77.52% # Type of FU issued
system.cpu0.iq.FU_type_0::FloatSqrt                 0      0.00%     77.52% # Type of FU issued
system.cpu0.iq.FU_type_0::SimdAdd                   0      0.00%     77.52% # Type of FU issued
system.cpu0.iq.FU_type_0::SimdAddAcc                0      0.00%     77.52% # Type of FU issued
system.cpu0.iq.FU_type_0::SimdAlu                   0      0.00%     77.52% # Type of FU issued
system.cpu0.iq.FU_type_0::SimdCmp                   0      0.00%     77.52% # Type of FU issued
system.cpu0.iq.FU_type_0::SimdCvt                   0      0.00%     77.52% # Type of FU issued
system.cpu0.iq.FU_type_0::SimdMisc                  0      0.00%     77.52% # Type of FU issued
system.cpu0.iq.FU_type_0::SimdMult                  0      0.00%     77.52% # Type of FU issued
system.cpu0.iq.FU_type_0::SimdMultAcc               0      0.00%     77.52% # Type of FU issued
system.cpu0.iq.FU_type_0::SimdShift                 0      0.00%     77.52% # Type of FU issued
system.cpu0.iq.FU_type_0::SimdShiftAcc              0      0.00%     77.52% # Type of FU issued
system.cpu0.iq.FU_type_0::SimdSqrt                  0      0.00%     77.52% # Type of FU issued
system.cpu0.iq.FU_type_0::SimdFloatAdd              0      0.00%     77.52% # Type of FU issued
system.cpu0.iq.FU_type_0::SimdFloatAlu              0      0.00%     77.52% # Type of FU issued
system.cpu0.iq.FU_type_0::SimdFloatCmp              0      0.00%     77.52% # Type of FU issued
system.cpu0.iq.FU_type_0::SimdFloatCvt              0      0.00%     77.52% # Type of FU issued
system.cpu0.iq.FU_type_0::SimdFloatDiv              0      0.00%     77.52% # Type of FU issued
system.cpu0.iq.FU_type_0::SimdFloatMisc         11308      0.01%     77.53% # Type of FU issued
system.cpu0.iq.FU_type_0::SimdFloatMult             0      0.00%     77.53% # Type of FU issued
system.cpu0.iq.FU_type_0::SimdFloatMultAcc            0      0.00%     77.53% # Type of FU issued
system.cpu0.iq.FU_type_0::SimdFloatSqrt             0      0.00%     77.53% # Type of FU issued
system.cpu0.iq.FU_type_0::MemRead            14198153     13.87%     91.40% # Type of FU issued
system.cpu0.iq.FU_type_0::MemWrite            8809034      8.60%    100.00% # Type of FU issued
system.cpu0.iq.FU_type_0::FloatMemRead              0      0.00%    100.00% # Type of FU issued
system.cpu0.iq.FU_type_0::FloatMemWrite            16      0.00%    100.00% # Type of FU issued
system.cpu0.iq.FU_type_0::IprAccess                 0      0.00%    100.00% # Type of FU issued
system.cpu0.iq.FU_type_0::InstPrefetch              0      0.00%    100.00% # Type of FU issued
system.cpu0.iq.FU_type_0::total             102385765                       # Type of FU issued
system.cpu0.iq.rate                          1.142124                       # Inst issue rate
system.cpu0.iq.fu_busy_cnt                   64671278                       # FU busy when requested
system.cpu0.iq.fu_busy_rate                  0.631643                       # FU busy rate (busy events/executed inst)
system.cpu0.iq.int_inst_queue_reads         360384285                       # Number of integer instruction queue reads
system.cpu0.iq.int_inst_queue_writes        124287359                       # Number of integer instruction queue writes
system.cpu0.iq.int_inst_queue_wakeup_accesses    102030703                       # Number of integer instruction queue wakeup accesses
system.cpu0.iq.fp_inst_queue_reads                 32                       # Number of floating instruction queue reads
system.cpu0.iq.fp_inst_queue_writes                18                       # Number of floating instruction queue writes
system.cpu0.iq.fp_inst_queue_wakeup_accesses           16                       # Number of floating instruction queue wakeup accesses
system.cpu0.iq.int_alu_accesses             167057027                       # Number of integer alu accesses
system.cpu0.iq.fp_alu_accesses                     16                       # Number of floating point alu accesses
system.cpu0.iew.lsq.thread0.forwLoads         1907476                       # Number of loads that had data forwarded from stores
system.cpu0.iew.lsq.thread0.invAddrLoads            0                       # Number of loads ignored due to an invalid address
system.cpu0.iew.lsq.thread0.squashedLoads      1075695                       # Number of loads squashed
system.cpu0.iew.lsq.thread0.ignoredResponses          295                       # Number of memory responses ignored because the instruction is squashed
system.cpu0.iew.lsq.thread0.memOrderViolation         1759                       # Number of memory ordering violations
system.cpu0.iew.lsq.thread0.squashedStores       613220                       # Number of stores squashed
system.cpu0.iew.lsq.thread0.invAddrSwpfs            0                       # Number of software prefetches ignored due to an invalid address
system.cpu0.iew.lsq.thread0.blockedLoads            0                       # Number of blocked loads due to partial load-store forwarding
system.cpu0.iew.lsq.thread0.rescheduledLoads       134963                       # Number of loads that were rescheduled
system.cpu0.iew.lsq.thread0.cacheBlocked         1514                       # Number of times an access to memory failed due to the cache being blocked
system.cpu0.iew.iewIdleCycles                       0                       # Number of cycles IEW is idle
system.cpu0.iew.iewSquashCycles                408900                       # Number of cycles IEW is squashing
system.cpu0.iew.iewBlockCycles                1280089                       # Number of cycles IEW is blocking
system.cpu0.iew.iewUnblockCycles                27230                       # Number of cycles IEW is unblocking
system.cpu0.iew.iewDispatchedInsts          112409784                       # Number of instructions dispatched to IQ
system.cpu0.iew.iewDispSquashedInsts            82184                       # Number of squashed instructions skipped by dispatch
system.cpu0.iew.iewDispLoadInsts             14661049                       # Number of dispatched load instructions
system.cpu0.iew.iewDispStoreInsts             9273312                       # Number of dispatched store instructions
system.cpu0.iew.iewDispNonSpecInsts              9860                       # Number of dispatched non-speculative instructions
system.cpu0.iew.iewIQFullEvents                   365                       # Number of times the IQ has become full, causing a stall
system.cpu0.iew.iewLSQFullEvents                 3779                       # Number of times the LSQ has become full, causing a stall
system.cpu0.iew.memOrderViolationEvents          1759                       # Number of memory order violations
system.cpu0.iew.predictedTakenIncorrect        217308                       # Number of branches that were predicted taken incorrectly
system.cpu0.iew.predictedNotTakenIncorrect       210035                       # Number of branches that were predicted not taken incorrectly
system.cpu0.iew.branchMispredicts              427343                       # Number of branch mispredicts detected at execute
system.cpu0.iew.iewExecutedInsts            102249429                       # Number of executed instructions
system.cpu0.iew.iewExecLoadInsts             14150414                       # Number of load instructions executed
system.cpu0.iew.iewExecSquashedInsts           136336                       # Number of squashed instructions skipped in execute
system.cpu0.iew.exec_swp                            0                       # number of swp insts executed
system.cpu0.iew.exec_nop                           38                       # number of nop insts executed
system.cpu0.iew.exec_refs                    22935999                       # number of memory reference insts executed
system.cpu0.iew.exec_branches                15954077                       # Number of branches executed
system.cpu0.iew.exec_stores                   8785585                       # Number of stores executed
system.cpu0.iew.exec_rate                    1.140603                       # Inst execution rate
system.cpu0.iew.wb_sent                     102053552                       # cumulative count of insts sent to commit
system.cpu0.iew.wb_count                    102030719                       # cumulative count of insts written-back
system.cpu0.iew.wb_producers                 73141727                       # num instructions producing a value
system.cpu0.iew.wb_consumers                168229713                       # num instructions consuming a value
system.cpu0.iew.wb_rate                      1.138163                       # insts written-back per cycle
system.cpu0.iew.wb_fanout                    0.434773                       # average fanout of values written-back
system.cpu0.commit.commitSquashedInsts       11875943                       # The number of squashed insts skipped by commit
system.cpu0.commit.commitNonSpecStalls          18210                       # The number of times commit has been forced to stall to communicate backwards
system.cpu0.commit.branchMispredicts           404757                       # The number of times a branch was mispredicted
system.cpu0.commit.committed_per_cycle::samples     87876252                       # Number of insts commited each cycle
system.cpu0.commit.committed_per_cycle::mean     1.144039                       # Number of insts commited each cycle
system.cpu0.commit.committed_per_cycle::stdev     1.035348                       # Number of insts commited each cycle
system.cpu0.commit.committed_per_cycle::underflows            0      0.00%      0.00% # Number of insts commited each cycle
system.cpu0.commit.committed_per_cycle::0     13304833     15.14%     15.14% # Number of insts commited each cycle
system.cpu0.commit.committed_per_cycle::1     61199162     69.64%     84.78% # Number of insts commited each cycle
system.cpu0.commit.committed_per_cycle::2      8098342      9.22%     94.00% # Number of insts commited each cycle
system.cpu0.commit.committed_per_cycle::3      2442366      2.78%     96.78% # Number of insts commited each cycle
system.cpu0.commit.committed_per_cycle::4      1033735      1.18%     97.95% # Number of insts commited each cycle
system.cpu0.commit.committed_per_cycle::5       269496      0.31%     98.26% # Number of insts commited each cycle
system.cpu0.commit.committed_per_cycle::6       510308      0.58%     98.84% # Number of insts commited each cycle
system.cpu0.commit.committed_per_cycle::7       877437      1.00%     99.84% # Number of insts commited each cycle
system.cpu0.commit.committed_per_cycle::8       140573      0.16%    100.00% # Number of insts commited each cycle
system.cpu0.commit.committed_per_cycle::overflows            0      0.00%    100.00% # Number of insts commited each cycle
system.cpu0.commit.committed_per_cycle::min_value            0                       # Number of insts commited each cycle
system.cpu0.commit.committed_per_cycle::max_value            8                       # Number of insts commited each cycle
system.cpu0.commit.committed_per_cycle::total     87876252                       # Number of insts commited each cycle
system.cpu0.commit.committedInsts            88962893                       # Number of instructions committed
system.cpu0.commit.committedOps             100533855                       # Number of ops (including micro ops) committed
system.cpu0.commit.swp_count                        0                       # Number of s/w prefetches committed
system.cpu0.commit.refs                      22245446                       # Number of memory references committed
system.cpu0.commit.loads                     13585354                       # Number of loads committed
system.cpu0.commit.membars                       9126                       # Number of memory barriers committed
system.cpu0.commit.branches                  15793931                       # Number of branches committed
system.cpu0.commit.fp_insts                        16                       # Number of committed floating point instructions.
system.cpu0.commit.int_insts                 90891667                       # Number of committed integer instructions.
system.cpu0.commit.function_calls             2565443                       # Number of function calls committed.
system.cpu0.commit.op_class_0::No_OpClass            0      0.00%      0.00% # Class of committed instruction
system.cpu0.commit.op_class_0::IntAlu        77771953     77.36%     77.36% # Class of committed instruction
system.cpu0.commit.op_class_0::IntMult         505148      0.50%     77.86% # Class of committed instruction
system.cpu0.commit.op_class_0::IntDiv               0      0.00%     77.86% # Class of committed instruction
system.cpu0.commit.op_class_0::FloatAdd             0      0.00%     77.86% # Class of committed instruction
system.cpu0.commit.op_class_0::FloatCmp             0      0.00%     77.86% # Class of committed instruction
system.cpu0.commit.op_class_0::FloatCvt             0      0.00%     77.86% # Class of committed instruction
system.cpu0.commit.op_class_0::FloatMult            0      0.00%     77.86% # Class of committed instruction
system.cpu0.commit.op_class_0::FloatMultAcc            0      0.00%     77.86% # Class of committed instruction
system.cpu0.commit.op_class_0::FloatDiv             0      0.00%     77.86% # Class of committed instruction
system.cpu0.commit.op_class_0::FloatMisc            0      0.00%     77.86% # Class of committed instruction
system.cpu0.commit.op_class_0::FloatSqrt            0      0.00%     77.86% # Class of committed instruction
system.cpu0.commit.op_class_0::SimdAdd              0      0.00%     77.86% # Class of committed instruction
system.cpu0.commit.op_class_0::SimdAddAcc            0      0.00%     77.86% # Class of committed instruction
system.cpu0.commit.op_class_0::SimdAlu              0      0.00%     77.86% # Class of committed instruction
system.cpu0.commit.op_class_0::SimdCmp              0      0.00%     77.86% # Class of committed instruction
system.cpu0.commit.op_class_0::SimdCvt              0      0.00%     77.86% # Class of committed instruction
system.cpu0.commit.op_class_0::SimdMisc             0      0.00%     77.86% # Class of committed instruction
system.cpu0.commit.op_class_0::SimdMult             0      0.00%     77.86% # Class of committed instruction
system.cpu0.commit.op_class_0::SimdMultAcc            0      0.00%     77.86% # Class of committed instruction
system.cpu0.commit.op_class_0::SimdShift            0      0.00%     77.86% # Class of committed instruction
system.cpu0.commit.op_class_0::SimdShiftAcc            0      0.00%     77.86% # Class of committed instruction
system.cpu0.commit.op_class_0::SimdSqrt             0      0.00%     77.86% # Class of committed instruction
system.cpu0.commit.op_class_0::SimdFloatAdd            0      0.00%     77.86% # Class of committed instruction
system.cpu0.commit.op_class_0::SimdFloatAlu            0      0.00%     77.86% # Class of committed instruction
system.cpu0.commit.op_class_0::SimdFloatCmp            0      0.00%     77.86% # Class of committed instruction
system.cpu0.commit.op_class_0::SimdFloatCvt            0      0.00%     77.86% # Class of committed instruction
system.cpu0.commit.op_class_0::SimdFloatDiv            0      0.00%     77.86% # Class of committed instruction
system.cpu0.commit.op_class_0::SimdFloatMisc        11308      0.01%     77.87% # Class of committed instruction
system.cpu0.commit.op_class_0::SimdFloatMult            0      0.00%     77.87% # Class of committed instruction
system.cpu0.commit.op_class_0::SimdFloatMultAcc            0      0.00%     77.87% # Class of committed instruction
system.cpu0.commit.op_class_0::SimdFloatSqrt            0      0.00%     77.87% # Class of committed instruction
system.cpu0.commit.op_class_0::MemRead       13585354     13.51%     91.39% # Class of committed instruction
system.cpu0.commit.op_class_0::MemWrite       8660076      8.61%    100.00% # Class of committed instruction
system.cpu0.commit.op_class_0::FloatMemRead            0      0.00%    100.00% # Class of committed instruction
system.cpu0.commit.op_class_0::FloatMemWrite           16      0.00%    100.00% # Class of committed instruction
system.cpu0.commit.op_class_0::IprAccess            0      0.00%    100.00% # Class of committed instruction
system.cpu0.commit.op_class_0::InstPrefetch            0      0.00%    100.00% # Class of committed instruction
system.cpu0.commit.op_class_0::total        100533855                       # Class of committed instruction
system.cpu0.commit.bw_lim_events               140573                       # number cycles where commit BW limit reached
system.cpu0.rob.rob_reads                   200112269                       # The number of ROB reads
system.cpu0.rob.rob_writes                  226476633                       # The number of ROB writes
system.cpu0.timesIdled                           8670                       # Number of times that the entire CPU went into an idle state and unscheduled itself
system.cpu0.idleCycles                         112240                       # Total number of cycles that the CPU has spent unscheduled due to idling
system.cpu0.committedInsts                   88962893                       # Number of Instructions Simulated
system.cpu0.committedOps                    100533855                       # Number of Ops (including micro ops) Simulated
system.cpu0.cpi                              1.007668                       # CPI: Cycles Per Instruction
system.cpu0.cpi_total                        1.007668                       # CPI: Total CPI of All Threads
system.cpu0.ipc                              0.992390                       # IPC: Instructions Per Cycle
system.cpu0.ipc_total                        0.992390                       # IPC: Total IPC of All Threads
system.cpu0.int_regfile_reads               120109698                       # number of integer regfile reads
system.cpu0.int_regfile_writes               70931623                       # number of integer regfile writes
system.cpu0.fp_regfile_reads                     1136                       # number of floating regfile reads
system.cpu0.cc_regfile_reads                351794212                       # number of cc regfile reads
system.cpu0.cc_regfile_writes                53227680                       # number of cc regfile writes
system.cpu0.misc_regfile_reads               22790048                       # number of misc regfile reads
system.cpu0.misc_regfile_writes                 16263                       # number of misc regfile writes
system.cpu0.dcache.tags.pwrStateResidencyTicks::UNDEFINED  89645078000                       # Cumulative time (in ticks) in various power states
system.cpu0.dcache.tags.replacements            85371                       # number of replacements
system.cpu0.dcache.tags.tagsinuse          206.652929                       # Cycle average of tags in use
system.cpu0.dcache.tags.total_refs           20012774                       # Total number of references to valid blocks.
system.cpu0.dcache.tags.sampled_refs            85597                       # Sample count of references to valid blocks.
system.cpu0.dcache.tags.avg_refs           233.802283                       # Average number of references to valid blocks.
system.cpu0.dcache.tags.warmup_cycle      17567494500                       # Cycle when the warmup percentage was hit.
system.cpu0.dcache.tags.occ_blocks::cpu0.data   206.652929                       # Average occupied blocks per requestor
system.cpu0.dcache.tags.occ_percent::cpu0.data     0.807238                       # Average percentage of cache occupancy
system.cpu0.dcache.tags.occ_percent::total     0.807238                       # Average percentage of cache occupancy
system.cpu0.dcache.tags.occ_task_id_blocks::1024          226                       # Occupied blocks per task id
system.cpu0.dcache.tags.age_task_id_blocks_1024::0           27                       # Occupied blocks per task id
system.cpu0.dcache.tags.age_task_id_blocks_1024::1           14                       # Occupied blocks per task id
system.cpu0.dcache.tags.age_task_id_blocks_1024::2          101                       # Occupied blocks per task id
system.cpu0.dcache.tags.age_task_id_blocks_1024::3           73                       # Occupied blocks per task id
system.cpu0.dcache.tags.age_task_id_blocks_1024::4           11                       # Occupied blocks per task id
system.cpu0.dcache.tags.occ_task_id_percent::1024     0.882812                       # Percentage of cache occupancy per task id
system.cpu0.dcache.tags.tag_accesses         20259473                       # Number of tag accesses
system.cpu0.dcache.tags.data_accesses        20259473                       # Number of data accesses
system.cpu0.dcache.pwrStateResidencyTicks::UNDEFINED  89645078000                       # Cumulative time (in ticks) in various power states
system.cpu0.dcache.ReadReq_hits::cpu0.data     11560327                       # number of ReadReq hits
system.cpu0.dcache.ReadReq_hits::total       11560327                       # number of ReadReq hits
system.cpu0.dcache.WriteReq_hits::cpu0.data      8441397                       # number of WriteReq hits
system.cpu0.dcache.WriteReq_hits::total       8441397                       # number of WriteReq hits
system.cpu0.dcache.LoadLockedReq_hits::cpu0.data         6019                       # number of LoadLockedReq hits
system.cpu0.dcache.LoadLockedReq_hits::total         6019                       # number of LoadLockedReq hits
system.cpu0.dcache.StoreCondReq_hits::cpu0.data         4019                       # number of StoreCondReq hits
system.cpu0.dcache.StoreCondReq_hits::total         4019                       # number of StoreCondReq hits
system.cpu0.dcache.demand_hits::cpu0.data     20001724                       # number of demand (read+write) hits
system.cpu0.dcache.demand_hits::total        20001724                       # number of demand (read+write) hits
system.cpu0.dcache.overall_hits::cpu0.data     20001724                       # number of overall hits
system.cpu0.dcache.overall_hits::total       20001724                       # number of overall hits
system.cpu0.dcache.ReadReq_misses::cpu0.data        89309                       # number of ReadReq misses
system.cpu0.dcache.ReadReq_misses::total        89309                       # number of ReadReq misses
system.cpu0.dcache.WriteReq_misses::cpu0.data        63159                       # number of WriteReq misses
system.cpu0.dcache.WriteReq_misses::total        63159                       # number of WriteReq misses
system.cpu0.dcache.LoadLockedReq_misses::cpu0.data          778                       # number of LoadLockedReq misses
system.cpu0.dcache.LoadLockedReq_misses::total          778                       # number of LoadLockedReq misses
system.cpu0.dcache.StoreCondReq_misses::cpu0.data         2036                       # number of StoreCondReq misses
system.cpu0.dcache.StoreCondReq_misses::total         2036                       # number of StoreCondReq misses
system.cpu0.dcache.demand_misses::cpu0.data       152468                       # number of demand (read+write) misses
system.cpu0.dcache.demand_misses::total        152468                       # number of demand (read+write) misses
system.cpu0.dcache.overall_misses::cpu0.data       152468                       # number of overall misses
system.cpu0.dcache.overall_misses::total       152468                       # number of overall misses
system.cpu0.dcache.ReadReq_miss_latency::cpu0.data   1430891000                       # number of ReadReq miss cycles
system.cpu0.dcache.ReadReq_miss_latency::total   1430891000                       # number of ReadReq miss cycles
system.cpu0.dcache.WriteReq_miss_latency::cpu0.data   1007897737                       # number of WriteReq miss cycles
system.cpu0.dcache.WriteReq_miss_latency::total   1007897737                       # number of WriteReq miss cycles
system.cpu0.dcache.LoadLockedReq_miss_latency::cpu0.data      7664000                       # number of LoadLockedReq miss cycles
system.cpu0.dcache.LoadLockedReq_miss_latency::total      7664000                       # number of LoadLockedReq miss cycles
system.cpu0.dcache.StoreCondReq_miss_latency::cpu0.data     18440000                       # number of StoreCondReq miss cycles
system.cpu0.dcache.StoreCondReq_miss_latency::total     18440000                       # number of StoreCondReq miss cycles
system.cpu0.dcache.StoreCondFailReq_miss_latency::cpu0.data       693000                       # number of StoreCondFailReq miss cycles
system.cpu0.dcache.StoreCondFailReq_miss_latency::total       693000                       # number of StoreCondFailReq miss cycles
system.cpu0.dcache.demand_miss_latency::cpu0.data   2438788737                       # number of demand (read+write) miss cycles
system.cpu0.dcache.demand_miss_latency::total   2438788737                       # number of demand (read+write) miss cycles
system.cpu0.dcache.overall_miss_latency::cpu0.data   2438788737                       # number of overall miss cycles
system.cpu0.dcache.overall_miss_latency::total   2438788737                       # number of overall miss cycles
system.cpu0.dcache.ReadReq_accesses::cpu0.data     11649636                       # number of ReadReq accesses(hits+misses)
system.cpu0.dcache.ReadReq_accesses::total     11649636                       # number of ReadReq accesses(hits+misses)
system.cpu0.dcache.WriteReq_accesses::cpu0.data      8504556                       # number of WriteReq accesses(hits+misses)
system.cpu0.dcache.WriteReq_accesses::total      8504556                       # number of WriteReq accesses(hits+misses)
system.cpu0.dcache.LoadLockedReq_accesses::cpu0.data         6797                       # number of LoadLockedReq accesses(hits+misses)
system.cpu0.dcache.LoadLockedReq_accesses::total         6797                       # number of LoadLockedReq accesses(hits+misses)
system.cpu0.dcache.StoreCondReq_accesses::cpu0.data         6055                       # number of StoreCondReq accesses(hits+misses)
system.cpu0.dcache.StoreCondReq_accesses::total         6055                       # number of StoreCondReq accesses(hits+misses)
system.cpu0.dcache.demand_accesses::cpu0.data     20154192                       # number of demand (read+write) accesses
system.cpu0.dcache.demand_accesses::total     20154192                       # number of demand (read+write) accesses
system.cpu0.dcache.overall_accesses::cpu0.data     20154192                       # number of overall (read+write) accesses
system.cpu0.dcache.overall_accesses::total     20154192                       # number of overall (read+write) accesses
system.cpu0.dcache.ReadReq_miss_rate::cpu0.data     0.007666                       # miss rate for ReadReq accesses
system.cpu0.dcache.ReadReq_miss_rate::total     0.007666                       # miss rate for ReadReq accesses
system.cpu0.dcache.WriteReq_miss_rate::cpu0.data     0.007426                       # miss rate for WriteReq accesses
system.cpu0.dcache.WriteReq_miss_rate::total     0.007426                       # miss rate for WriteReq accesses
system.cpu0.dcache.LoadLockedReq_miss_rate::cpu0.data     0.114462                       # miss rate for LoadLockedReq accesses
system.cpu0.dcache.LoadLockedReq_miss_rate::total     0.114462                       # miss rate for LoadLockedReq accesses
system.cpu0.dcache.StoreCondReq_miss_rate::cpu0.data     0.336251                       # miss rate for StoreCondReq accesses
system.cpu0.dcache.StoreCondReq_miss_rate::total     0.336251                       # miss rate for StoreCondReq accesses
system.cpu0.dcache.demand_miss_rate::cpu0.data     0.007565                       # miss rate for demand accesses
system.cpu0.dcache.demand_miss_rate::total     0.007565                       # miss rate for demand accesses
system.cpu0.dcache.overall_miss_rate::cpu0.data     0.007565                       # miss rate for overall accesses
system.cpu0.dcache.overall_miss_rate::total     0.007565                       # miss rate for overall accesses
system.cpu0.dcache.ReadReq_avg_miss_latency::cpu0.data 16021.800714                       # average ReadReq miss latency
system.cpu0.dcache.ReadReq_avg_miss_latency::total 16021.800714                       # average ReadReq miss latency
system.cpu0.dcache.WriteReq_avg_miss_latency::cpu0.data 15958.101569                       # average WriteReq miss latency
system.cpu0.dcache.WriteReq_avg_miss_latency::total 15958.101569                       # average WriteReq miss latency
system.cpu0.dcache.LoadLockedReq_avg_miss_latency::cpu0.data  9850.899743                       # average LoadLockedReq miss latency
system.cpu0.dcache.LoadLockedReq_avg_miss_latency::total  9850.899743                       # average LoadLockedReq miss latency
system.cpu0.dcache.StoreCondReq_avg_miss_latency::cpu0.data  9056.974460                       # average StoreCondReq miss latency
system.cpu0.dcache.StoreCondReq_avg_miss_latency::total  9056.974460                       # average StoreCondReq miss latency
system.cpu0.dcache.StoreCondFailReq_avg_miss_latency::cpu0.data          inf                       # average StoreCondFailReq miss latency
system.cpu0.dcache.StoreCondFailReq_avg_miss_latency::total          inf                       # average StoreCondFailReq miss latency
system.cpu0.dcache.demand_avg_miss_latency::cpu0.data 15995.413706                       # average overall miss latency
system.cpu0.dcache.demand_avg_miss_latency::total 15995.413706                       # average overall miss latency
system.cpu0.dcache.overall_avg_miss_latency::cpu0.data 15995.413706                       # average overall miss latency
system.cpu0.dcache.overall_avg_miss_latency::total 15995.413706                       # average overall miss latency
system.cpu0.dcache.blocked_cycles::no_mshrs         5772                       # number of cycles access was blocked
system.cpu0.dcache.blocked_cycles::no_targets            0                       # number of cycles access was blocked
system.cpu0.dcache.blocked::no_mshrs              948                       # number of cycles access was blocked
system.cpu0.dcache.blocked::no_targets              0                       # number of cycles access was blocked
system.cpu0.dcache.avg_blocked_cycles::no_mshrs     6.088608                       # average number of cycles each access was blocked
system.cpu0.dcache.avg_blocked_cycles::no_targets          nan                       # average number of cycles each access was blocked
system.cpu0.dcache.writebacks::writebacks        50288                       # number of writebacks
system.cpu0.dcache.writebacks::total            50288                       # number of writebacks
system.cpu0.dcache.ReadReq_mshr_hits::cpu0.data        20292                       # number of ReadReq MSHR hits
system.cpu0.dcache.ReadReq_mshr_hits::total        20292                       # number of ReadReq MSHR hits
system.cpu0.dcache.WriteReq_mshr_hits::cpu0.data        38341                       # number of WriteReq MSHR hits
system.cpu0.dcache.WriteReq_mshr_hits::total        38341                       # number of WriteReq MSHR hits
system.cpu0.dcache.LoadLockedReq_mshr_hits::cpu0.data          279                       # number of LoadLockedReq MSHR hits
system.cpu0.dcache.LoadLockedReq_mshr_hits::total          279                       # number of LoadLockedReq MSHR hits
system.cpu0.dcache.demand_mshr_hits::cpu0.data        58633                       # number of demand (read+write) MSHR hits
system.cpu0.dcache.demand_mshr_hits::total        58633                       # number of demand (read+write) MSHR hits
system.cpu0.dcache.overall_mshr_hits::cpu0.data        58633                       # number of overall MSHR hits
system.cpu0.dcache.overall_mshr_hits::total        58633                       # number of overall MSHR hits
system.cpu0.dcache.ReadReq_mshr_misses::cpu0.data        69017                       # number of ReadReq MSHR misses
system.cpu0.dcache.ReadReq_mshr_misses::total        69017                       # number of ReadReq MSHR misses
system.cpu0.dcache.WriteReq_mshr_misses::cpu0.data        24818                       # number of WriteReq MSHR misses
system.cpu0.dcache.WriteReq_mshr_misses::total        24818                       # number of WriteReq MSHR misses
system.cpu0.dcache.LoadLockedReq_mshr_misses::cpu0.data          499                       # number of LoadLockedReq MSHR misses
system.cpu0.dcache.LoadLockedReq_mshr_misses::total          499                       # number of LoadLockedReq MSHR misses
system.cpu0.dcache.StoreCondReq_mshr_misses::cpu0.data         2035                       # number of StoreCondReq MSHR misses
system.cpu0.dcache.StoreCondReq_mshr_misses::total         2035                       # number of StoreCondReq MSHR misses
system.cpu0.dcache.demand_mshr_misses::cpu0.data        93835                       # number of demand (read+write) MSHR misses
system.cpu0.dcache.demand_mshr_misses::total        93835                       # number of demand (read+write) MSHR misses
system.cpu0.dcache.overall_mshr_misses::cpu0.data        93835                       # number of overall MSHR misses
system.cpu0.dcache.overall_mshr_misses::total        93835                       # number of overall MSHR misses
system.cpu0.dcache.ReadReq_mshr_miss_latency::cpu0.data    975149000                       # number of ReadReq MSHR miss cycles
system.cpu0.dcache.ReadReq_mshr_miss_latency::total    975149000                       # number of ReadReq MSHR miss cycles
system.cpu0.dcache.WriteReq_mshr_miss_latency::cpu0.data    373301330                       # number of WriteReq MSHR miss cycles
system.cpu0.dcache.WriteReq_mshr_miss_latency::total    373301330                       # number of WriteReq MSHR miss cycles
system.cpu0.dcache.LoadLockedReq_mshr_miss_latency::cpu0.data      3208000                       # number of LoadLockedReq MSHR miss cycles
system.cpu0.dcache.LoadLockedReq_mshr_miss_latency::total      3208000                       # number of LoadLockedReq MSHR miss cycles
system.cpu0.dcache.StoreCondReq_mshr_miss_latency::cpu0.data     14479000                       # number of StoreCondReq MSHR miss cycles
system.cpu0.dcache.StoreCondReq_mshr_miss_latency::total     14479000                       # number of StoreCondReq MSHR miss cycles
system.cpu0.dcache.StoreCondFailReq_mshr_miss_latency::cpu0.data       560000                       # number of StoreCondFailReq MSHR miss cycles
system.cpu0.dcache.StoreCondFailReq_mshr_miss_latency::total       560000                       # number of StoreCondFailReq MSHR miss cycles
system.cpu0.dcache.demand_mshr_miss_latency::cpu0.data   1348450330                       # number of demand (read+write) MSHR miss cycles
system.cpu0.dcache.demand_mshr_miss_latency::total   1348450330                       # number of demand (read+write) MSHR miss cycles
system.cpu0.dcache.overall_mshr_miss_latency::cpu0.data   1348450330                       # number of overall MSHR miss cycles
system.cpu0.dcache.overall_mshr_miss_latency::total   1348450330                       # number of overall MSHR miss cycles
[...]
system.l2.overall_avg_mshr_miss_latency::cpu3.inst 52199.417357                       # average overall mshr miss latency
system.l2.overall_avg_mshr_miss_latency::cpu3.data 51808.985028                       # average overall mshr miss latency
system.l2.overall_avg_mshr_miss_latency::cpu4.inst 52194.909954                       # average overall mshr miss latency
system.l2.overall_avg_mshr_miss_latency::cpu4.data 51703.451408                       # average overall mshr miss latency
system.l2.overall_avg_mshr_miss_latency::cpu5.inst 52057.940343                       # average overall mshr miss latency
system.l2.overall_avg_mshr_miss_latency::cpu5.data 51618.366955                       # average overall mshr miss latency
system.l2.overall_avg_mshr_miss_latency::cpu6.inst 52066.496164                       # average overall mshr miss latency
system.l2.overall_avg_mshr_miss_latency::cpu6.data 51544.449596                       # average overall mshr miss latency
system.l2.overall_avg_mshr_miss_latency::cpu7.inst 51699.913297                       # average overall mshr miss latency
system.l2.overall_avg_mshr_miss_latency::cpu7.data 51682.325637                       # average overall mshr miss latency
system.l2.overall_avg_mshr_miss_latency::total 51864.527699                       # average overall mshr miss latency
system.membus.snoop_filter.tot_requests         78471                       # Total number of requests made to the snoop filter.
system.membus.snoop_filter.hit_single_requests        53419                       # Number of requests hitting in the snoop filter with a single holder of the requested data.
system.membus.snoop_filter.hit_multi_requests            0                       # Number of requests hitting in the snoop filter with multiple (>1) holders of the requested data.
system.membus.snoop_filter.tot_snoops               0                       # Total number of snoops made to the snoop filter.
system.membus.snoop_filter.hit_single_snoops            0                       # Number of snoops hitting in the snoop filter with a single holder of the requested data.
system.membus.snoop_filter.hit_multi_snoops            0                       # Number of snoops hitting in the snoop filter with multiple (>1) holders of the requested data.
system.membus.pwrStateResidencyTicks::UNDEFINED  89645078000                       # Cumulative time (in ticks) in various power states
system.membus.trans_dist::ReadResp              27848                       # Transaction distribution
system.membus.trans_dist::WritebackDirty         8290                       # Transaction distribution
system.membus.trans_dist::CleanEvict            13222                       # Transaction distribution
system.membus.trans_dist::UpgradeReq             7950                       # Transaction distribution
system.membus.trans_dist::SCUpgradeReq          10942                       # Transaction distribution
system.membus.trans_dist::ReadExReq              7937                       # Transaction distribution
system.membus.trans_dist::ReadExResp             7718                       # Transaction distribution
system.membus.trans_dist::ReadSharedReq         27848                       # Transaction distribution
system.membus.pkt_count_system.l2.mem_side::system.physmem.port       111755                       # Packet count per connected master and slave (bytes)
system.membus.pkt_count::total                 111755                       # Packet count per connected master and slave (bytes)
system.membus.pkt_size_system.l2.mem_side::system.physmem.port      2806784                       # Cumulative packet size per connected master and slave (bytes)
system.membus.pkt_size::total                 2806784                       # Cumulative packet size per connected master and slave (bytes)
system.membus.snoops                            17839                       # Total snoops (count)
system.membus.snoopTraffic                          0                       # Total snoop traffic (bytes)
system.membus.snoop_fanout::samples             56649                       # Request fanout histogram
system.membus.snoop_fanout::mean                    0                       # Request fanout histogram
system.membus.snoop_fanout::stdev                   0                       # Request fanout histogram
system.membus.snoop_fanout::underflows              0      0.00%      0.00% # Request fanout histogram
system.membus.snoop_fanout::0                   56649    100.00%    100.00% # Request fanout histogram
system.membus.snoop_fanout::1                       0      0.00%    100.00% # Request fanout histogram
system.membus.snoop_fanout::overflows               0      0.00%    100.00% # Request fanout histogram
system.membus.snoop_fanout::min_value               0                       # Request fanout histogram
system.membus.snoop_fanout::max_value               0                       # Request fanout histogram
system.membus.snoop_fanout::total               56649                       # Request fanout histogram
system.membus.reqLayer0.occupancy           114769058                       # Layer occupancy (ticks)
system.membus.reqLayer0.utilization               0.1                       # Layer utilization (%)
system.membus.respLayer1.occupancy          177830000                       # Layer occupancy (ticks)
system.membus.respLayer1.utilization              0.2                       # Layer utilization (%)
system.tol2bus.snoop_filter.tot_requests      5746917                       # Total number of requests made to the snoop filter.
system.tol2bus.snoop_filter.hit_single_requests      1643275                       # Number of requests hitting in the snoop filter with a single holder of the requested data.
system.tol2bus.snoop_filter.hit_multi_requests      2859754                       # Number of requests hitting in the snoop filter with multiple (>1) holders of the requested data.
system.tol2bus.snoop_filter.tot_snoops          28768                       # Total number of snoops made to the snoop filter.
system.tol2bus.snoop_filter.hit_single_snoops        16040                       # Number of snoops hitting in the snoop filter with a single holder of the requested data.
system.tol2bus.snoop_filter.hit_multi_snoops        12728                       # Number of snoops hitting in the snoop filter with multiple (>1) holders of the requested data.
system.tol2bus.pwrStateResidencyTicks::UNDEFINED  89645078000                       # Cumulative time (in ticks) in various power states
system.tol2bus.trans_dist::ReadResp           2809894                       # Transaction distribution
system.tol2bus.trans_dist::ReadRespWithInvalidate           17                       # Transaction distribution
system.tol2bus.trans_dist::WritebackDirty       152272                       # Transaction distribution
system.tol2bus.trans_dist::WritebackClean      2575391                       # Transaction distribution
system.tol2bus.trans_dist::CleanEvict          160318                       # Transaction distribution
system.tol2bus.trans_dist::UpgradeReq            9361                       # Transaction distribution
system.tol2bus.trans_dist::SCUpgradeReq         11906                       # Transaction distribution
system.tol2bus.trans_dist::UpgradeResp          21267                       # Transaction distribution
system.tol2bus.trans_dist::SCUpgradeFailReq          357                       # Transaction distribution
system.tol2bus.trans_dist::UpgradeFailResp          357                       # Transaction distribution
system.tol2bus.trans_dist::ReadExReq            75287                       # Transaction distribution
system.tol2bus.trans_dist::ReadExResp           75287                       # Transaction distribution
system.tol2bus.trans_dist::ReadCleanReq       2577461                       # Transaction distribution
system.tol2bus.trans_dist::ReadSharedReq       232450                       # Transaction distribution
system.tol2bus.pkt_count_system.cpu0.icache.mem_side::system.l2.cpu_side      1613162                       # Packet count per connected master and slave (bytes)
system.tol2bus.pkt_count_system.cpu0.dcache.mem_side::system.l2.cpu_side       267865                       # Packet count per connected master and slave (bytes)
system.tol2bus.pkt_count_system.cpu1.icache.mem_side::system.l2.cpu_side       531126                       # Packet count per connected master and slave (bytes)
system.tol2bus.pkt_count_system.cpu1.dcache.mem_side::system.l2.cpu_side        61245                       # Packet count per connected master and slave (bytes)
system.tol2bus.pkt_count_system.cpu2.icache.mem_side::system.l2.cpu_side       527283                       # Packet count per connected master and slave (bytes)
system.tol2bus.pkt_count_system.cpu2.dcache.mem_side::system.l2.cpu_side       259958                       # Packet count per connected master and slave (bytes)
system.tol2bus.pkt_count_system.cpu3.icache.mem_side::system.l2.cpu_side       521581                       # Packet count per connected master and slave (bytes)
system.tol2bus.pkt_count_system.cpu3.dcache.mem_side::system.l2.cpu_side        48576                       # Packet count per connected master and slave (bytes)
system.tol2bus.pkt_count_system.cpu4.icache.mem_side::system.l2.cpu_side      1076579                       # Packet count per connected master and slave (bytes)
system.tol2bus.pkt_count_system.cpu4.dcache.mem_side::system.l2.cpu_side        56997                       # Packet count per connected master and slave (bytes)
system.tol2bus.pkt_count_system.cpu5.icache.mem_side::system.l2.cpu_side      1069305                       # Packet count per connected master and slave (bytes)
system.tol2bus.pkt_count_system.cpu5.dcache.mem_side::system.l2.cpu_side        62321                       # Packet count per connected master and slave (bytes)
system.tol2bus.pkt_count_system.cpu6.icache.mem_side::system.l2.cpu_side      1073796                       # Packet count per connected master and slave (bytes)
system.tol2bus.pkt_count_system.cpu6.dcache.mem_side::system.l2.cpu_side        58257                       # Packet count per connected master and slave (bytes)
system.tol2bus.pkt_count_system.cpu7.icache.mem_side::system.l2.cpu_side      1317449                       # Packet count per connected master and slave (bytes)
system.tol2bus.pkt_count_system.cpu7.dcache.mem_side::system.l2.cpu_side        46050                       # Packet count per connected master and slave (bytes)
system.tol2bus.pkt_count::total               8591550                       # Packet count per connected master and slave (bytes)
system.tol2bus.pkt_size_system.cpu0.icache.mem_side::system.l2.cpu_side     68822528                       # Cumulative packet size per connected master and slave (bytes)
system.tol2bus.pkt_size_system.cpu0.dcache.mem_side::system.l2.cpu_side      8682624                       # Cumulative packet size per connected master and slave (bytes)
system.tol2bus.pkt_size_system.cpu1.icache.mem_side::system.l2.cpu_side     22655680                       # Cumulative packet size per connected master and slave (bytes)
system.tol2bus.pkt_size_system.cpu1.dcache.mem_side::system.l2.cpu_side      1544896                       # Cumulative packet size per connected master and slave (bytes)
system.tol2bus.pkt_size_system.cpu2.icache.mem_side::system.l2.cpu_side     22491840                       # Cumulative packet size per connected master and slave (bytes)
system.tol2bus.pkt_size_system.cpu2.dcache.mem_side::system.l2.cpu_side      8137536                       # Cumulative packet size per connected master and slave (bytes)
system.tol2bus.pkt_size_system.cpu3.icache.mem_side::system.l2.cpu_side     22248512                       # Cumulative packet size per connected master and slave (bytes)
system.tol2bus.pkt_size_system.cpu3.dcache.mem_side::system.l2.cpu_side      1436096                       # Cumulative packet size per connected master and slave (bytes)
system.tol2bus.pkt_size_system.cpu4.icache.mem_side::system.l2.cpu_side     45928512                       # Cumulative packet size per connected master and slave (bytes)
system.tol2bus.pkt_size_system.cpu4.dcache.mem_side::system.l2.cpu_side      1615360                       # Cumulative packet size per connected master and slave (bytes)
system.tol2bus.pkt_size_system.cpu5.icache.mem_side::system.l2.cpu_side     45618048                       # Cumulative packet size per connected master and slave (bytes)
system.tol2bus.pkt_size_system.cpu5.dcache.mem_side::system.l2.cpu_side      1758016                       # Cumulative packet size per connected master and slave (bytes)
system.tol2bus.pkt_size_system.cpu6.icache.mem_side::system.l2.cpu_side     45809792                       # Cumulative packet size per connected master and slave (bytes)
system.tol2bus.pkt_size_system.cpu6.dcache.mem_side::system.l2.cpu_side      1684416                       # Cumulative packet size per connected master and slave (bytes)
system.tol2bus.pkt_size_system.cpu7.icache.mem_side::system.l2.cpu_side     56205568                       # Cumulative packet size per connected master and slave (bytes)
system.tol2bus.pkt_size_system.cpu7.dcache.mem_side::system.l2.cpu_side      1223680                       # Cumulative packet size per connected master and slave (bytes)
system.tol2bus.pkt_size::total              355863104                       # Cumulative packet size per connected master and slave (bytes)
system.tol2bus.snoops                          110075                       # Total snoops (count)
system.tol2bus.snoopTraffic                   3382848                       # Total snoop traffic (bytes)
system.tol2bus.snoop_fanout::samples          2954712                       # Request fanout histogram
system.tol2bus.snoop_fanout::mean            3.105015                       # Request fanout histogram
system.tol2bus.snoop_fanout::stdev           4.247877                       # Request fanout histogram
system.tol2bus.snoop_fanout::underflows             0      0.00%      0.00% # Request fanout histogram
system.tol2bus.snoop_fanout::0                1263365     42.76%     42.76% # Request fanout histogram
system.tol2bus.snoop_fanout::1                 436250     14.76%     57.52% # Request fanout histogram
system.tol2bus.snoop_fanout::2                 176642      5.98%     63.50% # Request fanout histogram
system.tol2bus.snoop_fanout::3                 164823      5.58%     69.08% # Request fanout histogram
system.tol2bus.snoop_fanout::4                  97704      3.31%     72.39% # Request fanout histogram
system.tol2bus.snoop_fanout::5                  86016      2.91%     75.30% # Request fanout histogram
system.tol2bus.snoop_fanout::6                 110766      3.75%     79.05% # Request fanout histogram
system.tol2bus.snoop_fanout::7                 173983      5.89%     84.93% # Request fanout histogram
system.tol2bus.snoop_fanout::8                  17250      0.58%     85.52% # Request fanout histogram
system.tol2bus.snoop_fanout::9                 157128      5.32%     90.84% # Request fanout histogram
system.tol2bus.snoop_fanout::10                 14760      0.50%     91.34% # Request fanout histogram
system.tol2bus.snoop_fanout::11                  9535      0.32%     91.66% # Request fanout histogram
system.tol2bus.snoop_fanout::12                  7652      0.26%     91.92% # Request fanout histogram
system.tol2bus.snoop_fanout::13                 58109      1.97%     93.88% # Request fanout histogram
system.tol2bus.snoop_fanout::14                175765      5.95%     99.83% # Request fanout histogram
system.tol2bus.snoop_fanout::15                  4964      0.17%    100.00% # Request fanout histogram
system.tol2bus.snoop_fanout::16                     0      0.00%    100.00% # Request fanout histogram
system.tol2bus.snoop_fanout::overflows              0      0.00%    100.00% # Request fanout histogram
system.tol2bus.snoop_fanout::min_value              0                       # Request fanout histogram
system.tol2bus.snoop_fanout::max_value             15                       # Request fanout histogram
system.tol2bus.snoop_fanout::total            2954712                       # Request fanout histogram
system.tol2bus.reqLayer0.occupancy         5592905350                       # Layer occupancy (ticks)
system.tol2bus.reqLayer0.utilization              6.2                       # Layer utilization (%)
system.tol2bus.respLayer0.occupancy         808116048                       # Layer occupancy (ticks)
system.tol2bus.respLayer0.utilization             0.9                       # Layer utilization (%)
system.tol2bus.respLayer1.occupancy         140917895                       # Layer occupancy (ticks)
system.tol2bus.respLayer1.utilization             0.2                       # Layer utilization (%)
system.tol2bus.respLayer4.occupancy         266985758                       # Layer occupancy (ticks)
system.tol2bus.respLayer4.utilization             0.3                       # Layer utilization (%)
system.tol2bus.respLayer5.occupancy          38479067                       # Layer occupancy (ticks)
system.tol2bus.respLayer5.utilization             0.0                       # Layer utilization (%)
system.tol2bus.respLayer8.occupancy         265331205                       # Layer occupancy (ticks)
system.tol2bus.respLayer8.utilization             0.3                       # Layer utilization (%)
system.tol2bus.respLayer9.occupancy         135055533                       # Layer occupancy (ticks)
system.tol2bus.respLayer9.utilization             0.2                       # Layer utilization (%)
system.tol2bus.respLayer12.occupancy        262405332                       # Layer occupancy (ticks)
system.tol2bus.respLayer12.utilization            0.3                       # Layer utilization (%)
system.tol2bus.respLayer13.occupancy         26533167                       # Layer occupancy (ticks)
system.tol2bus.respLayer13.utilization            0.0                       # Layer utilization (%)
system.tol2bus.respLayer16.occupancy        540067106                       # Layer occupancy (ticks)
system.tol2bus.respLayer16.utilization            0.6                       # Layer utilization (%)
system.tol2bus.respLayer17.occupancy         34189188                       # Layer occupancy (ticks)
system.tol2bus.respLayer17.utilization            0.0                       # Layer utilization (%)
system.tol2bus.respLayer20.occupancy        536621715                       # Layer occupancy (ticks)
system.tol2bus.respLayer20.utilization            0.6                       # Layer utilization (%)
system.tol2bus.respLayer21.occupancy         36619106                       # Layer occupancy (ticks)
system.tol2bus.respLayer21.utilization            0.0                       # Layer utilization (%)
system.tol2bus.respLayer24.occupancy        538632694                       # Layer occupancy (ticks)
system.tol2bus.respLayer24.utilization            0.6                       # Layer utilization (%)
system.tol2bus.respLayer25.occupancy         34836024                       # Layer occupancy (ticks)
system.tol2bus.respLayer25.utilization            0.0                       # Layer utilization (%)
system.tol2bus.respLayer28.occupancy        661329444                       # Layer occupancy (ticks)
system.tol2bus.respLayer28.utilization            0.7                       # Layer utilization (%)
system.tol2bus.respLayer29.occupancy         30067403                       # Layer occupancy (ticks)
system.tol2bus.respLayer29.utilization            0.0                       # Layer utilization (%)

---------- End Simulation Statistics   ----------
