
---------- Begin Simulation Statistics ----------
sim_seconds                                  0.564761                       # Number of seconds simulated
sim_ticks                                564761153000                       # Number of ticks simulated
final_tick                               564761153000                       # Number of ticks from beginning of simulation (restored from checkpoints and never reset)
sim_freq                                 1000000000000                       # Frequency of simulated ticks
host_inst_rate                                 229435                       # Simulator instruction rate (inst/s)
host_op_rate                                   259389                       # Simulator op (including micro ops) rate (op/s)
host_tick_rate                              227859070                       # Simulator tick rate (ticks/s)
host_mem_usage                                 719756                       # Number of bytes of host memory used
host_seconds                                  2478.55                       # Real time elapsed on the host
sim_insts                                   568667623                       # Number of instructions simulated
sim_ops                                     642909341                       # Number of ops (including micro ops) simulated
system.voltage_domain.voltage                       1                       # Voltage in Volts
system.clk_domain.clock                          1000                       # Clock period in ticks
system.physmem.pwrStateResidencyTicks::UNDEFINED 564761153000                       # Cumulative time (in ticks) in various power states
system.physmem.bytes_read::cpu0.inst           116928                       # Number of bytes read from this memory
system.physmem.bytes_read::cpu0.data           283456                       # Number of bytes read from this memory
system.physmem.bytes_read::total               400384                       # Number of bytes read from this memory
system.physmem.bytes_inst_read::cpu0.inst       116928                       # Number of instructions bytes read from this memory
system.physmem.bytes_inst_read::total          116928                       # Number of instructions bytes read from this memory
system.physmem.bytes_written::writebacks        78784                       # Number of bytes written to this memory
system.physmem.bytes_written::total             78784                       # Number of bytes written to this memory
system.physmem.num_reads::cpu0.inst              1827                       # Number of read requests responded to by this memory
system.physmem.num_reads::cpu0.data              4429                       # Number of read requests responded to by this memory
system.physmem.num_reads::total                  6256                       # Number of read requests responded to by this memory
system.physmem.num_writes::writebacks            1231                       # Number of write requests responded to by this memory
system.physmem.num_writes::total                 1231                       # Number of write requests responded to by this memory
system.physmem.bw_read::cpu0.inst              207040                       # Total read bandwidth from this memory (bytes/s)
system.physmem.bw_read::cpu0.data              501904                       # Total read bandwidth from this memory (bytes/s)
system.physmem.bw_read::total                  708944                       # Total read bandwidth from this memory (bytes/s)
system.physmem.bw_inst_read::cpu0.inst         207040                       # Instruction read bandwidth from this memory (bytes/s)
system.physmem.bw_inst_read::total             207040                       # Instruction read bandwidth from this memory (bytes/s)
system.physmem.bw_write::writebacks            139500                       # Write bandwidth from this memory (bytes/s)
system.physmem.bw_write::total                 139500                       # Write bandwidth from this memory (bytes/s)
system.physmem.bw_total::writebacks            139500                       # Total bandwidth to/from this memory (bytes/s)
system.physmem.bw_total::cpu0.inst             207040                       # Total bandwidth to/from this memory (bytes/s)
system.physmem.bw_total::cpu0.data             501904                       # Total bandwidth to/from this memory (bytes/s)
system.physmem.bw_total::total                 848444                       # Total bandwidth to/from this memory (bytes/s)
system.pwrStateResidencyTicks::UNDEFINED 564761153000                       # Cumulative time (in ticks) in various power states
system.cpu0.branchPred.lookups              114281230                       # Number of BP lookups
system.cpu0.branchPred.condPredicted         65633125                       # Number of conditional branches predicted
system.cpu0.branchPred.condIncorrect          2795540                       # Number of conditional branches incorrect
system.cpu0.branchPred.BTBLookups            63674568                       # Number of BTB lookups
system.cpu0.branchPred.BTBHits               54178335                       # Number of BTB hits
system.cpu0.branchPred.BTBCorrect                   0                       # Number of correct BTB predictions (this stat may not work properly.
system.cpu0.branchPred.BTBHitPct            85.086302                       # BTB Hit Percentage
system.cpu0.branchPred.usedRAS               15799880                       # Number of times the RAS was used to get a target.
system.cpu0.branchPred.RASInCorrect            300233                       # Number of incorrect RAS predictions.
system.cpu0.branchPred.indirectLookups        3606166                       # Number of indirect predictor lookups.
system.cpu0.branchPred.indirectHits           3578997                       # Number of indirect target hits.
system.cpu0.branchPred.indirectMisses           27169                       # Number of indirect misses.
system.cpu0.branchPredindirectMispredicted        26018                       # Number of mispredicted indirect branches.
system.cpu0.dstage2_mmu.stage2_tlb.walker.pwrStateResidencyTicks::UNDEFINED 564761153000                       # Cumulative time (in ticks) in various power states
system.cpu0.dstage2_mmu.stage2_tlb.walker.walks            0                       # Table walker walks requested
system.cpu0.dstage2_mmu.stage2_tlb.walker.walkRequestOrigin_Requested::Data            0                       # Table walker requests started/completed, data/inst
system.cpu0.dstage2_mmu.stage2_tlb.walker.walkRequestOrigin_Requested::Inst            0                       # Table walker requests started/completed, data/inst
system.cpu0.dstage2_mmu.stage2_tlb.walker.walkRequestOrigin_Requested::total            0                       # Table walker requests started/completed, data/inst
system.cpu0.dstage2_mmu.stage2_tlb.walker.walkRequestOrigin_Completed::Data            0                       # Table walker requests started/completed, data/inst
system.cpu0.dstage2_mmu.stage2_tlb.walker.walkRequestOrigin_Completed::Inst            0                       # Table walker requests started/completed, data/inst
system.cpu0.dstage2_mmu.stage2_tlb.walker.walkRequestOrigin_Completed::total            0                       # Table walker requests started/completed, data/inst
system.cpu0.dstage2_mmu.stage2_tlb.walker.walkRequestOrigin::total            0                       # Table walker requests started/completed, data/inst
system.cpu0.dstage2_mmu.stage2_tlb.inst_hits            0                       # ITB inst hits
system.cpu0.dstage2_mmu.stage2_tlb.inst_misses            0                       # ITB inst misses
system.cpu0.dstage2_mmu.stage2_tlb.read_hits            0                       # DTB read hits
system.cpu0.dstage2_mmu.stage2_tlb.read_misses            0                       # DTB read misses
system.cpu0.dstage2_mmu.stage2_tlb.write_hits            0                       # DTB write hits
system.cpu0.dstage2_mmu.stage2_tlb.write_misses            0                       # DTB write misses
system.cpu0.dstage2_mmu.stage2_tlb.flush_tlb            0                       # Number of times complete TLB was flushed
system.cpu0.dstage2_mmu.stage2_tlb.flush_tlb_mva            0                       # Number of times TLB was flushed by MVA
system.cpu0.dstage2_mmu.stage2_tlb.flush_tlb_mva_asid            0                       # Number of times TLB was flushed by MVA & ASID
system.cpu0.dstage2_mmu.stage2_tlb.flush_tlb_asid            0                       # Number of times TLB was flushed by ASID
system.cpu0.dstage2_mmu.stage2_tlb.flush_entries            0                       # Number of entries that have been flushed from TLB
system.cpu0.dstage2_mmu.stage2_tlb.align_faults            0                       # Number of TLB faults due to alignment restrictions
system.cpu0.dstage2_mmu.stage2_tlb.prefetch_faults            0                       # Number of TLB faults due to prefetch
system.cpu0.dstage2_mmu.stage2_tlb.domain_faults            0                       # Number of TLB faults due to domain restrictions
system.cpu0.dstage2_mmu.stage2_tlb.perms_faults            0                       # Number of TLB faults due to permissions restrictions
system.cpu0.dstage2_mmu.stage2_tlb.read_accesses            0                       # DTB read accesses
system.cpu0.dstage2_mmu.stage2_tlb.write_accesses            0                       # DTB write accesses
system.cpu0.dstage2_mmu.stage2_tlb.inst_accesses            0                       # ITB inst accesses
system.cpu0.dstage2_mmu.stage2_tlb.hits             0                       # DTB hits
system.cpu0.dstage2_mmu.stage2_tlb.misses            0                       # DTB misses
system.cpu0.dstage2_mmu.stage2_tlb.accesses            0                       # DTB accesses
system.cpu0.dtb.walker.pwrStateResidencyTicks::UNDEFINED 564761153000                       # Cumulative time (in ticks) in various power states
system.cpu0.dtb.walker.walks                        0                       # Table walker walks requested
system.cpu0.dtb.walker.walkRequestOrigin_Requested::Data            0                       # Table walker requests started/completed, data/inst
system.cpu0.dtb.walker.walkRequestOrigin_Requested::Inst            0                       # Table walker requests started/completed, data/inst
system.cpu0.dtb.walker.walkRequestOrigin_Requested::total            0                       # Table walker requests started/completed, data/inst
system.cpu0.dtb.walker.walkRequestOrigin_Completed::Data            0                       # Table walker requests started/completed, data/inst
system.cpu0.dtb.walker.walkRequestOrigin_Completed::Inst            0                       # Table walker requests started/completed, data/inst
system.cpu0.dtb.walker.walkRequestOrigin_Completed::total            0                       # Table walker requests started/completed, data/inst
system.cpu0.dtb.walker.walkRequestOrigin::total            0                       # Table walker requests started/completed, data/inst
system.cpu0.dtb.inst_hits                           0                       # ITB inst hits
system.cpu0.dtb.inst_misses                         0                       # ITB inst misses
system.cpu0.dtb.read_hits                           0                       # DTB read hits
system.cpu0.dtb.read_misses                         0                       # DTB read misses
system.cpu0.dtb.write_hits                          0                       # DTB write hits
system.cpu0.dtb.write_misses                        0                       # DTB write misses
system.cpu0.dtb.flush_tlb                           0                       # Number of times complete TLB was flushed
system.cpu0.dtb.flush_tlb_mva                       0                       # Number of times TLB was flushed by MVA
system.cpu0.dtb.flush_tlb_mva_asid                  0                       # Number of times TLB was flushed by MVA & ASID
system.cpu0.dtb.flush_tlb_asid                      0                       # Number of times TLB was flushed by ASID
system.cpu0.dtb.flush_entries                       0                       # Number of entries that have been flushed from TLB
system.cpu0.dtb.align_faults                        0                       # Number of TLB faults due to alignment restrictions
system.cpu0.dtb.prefetch_faults                     0                       # Number of TLB faults due to prefetch
system.cpu0.dtb.domain_faults                       0                       # Number of TLB faults due to domain restrictions
system.cpu0.dtb.perms_faults                        0                       # Number of TLB faults due to permissions restrictions
system.cpu0.dtb.read_accesses                       0                       # DTB read accesses
system.cpu0.dtb.write_accesses                      0                       # DTB write accesses
system.cpu0.dtb.inst_accesses                       0                       # ITB inst accesses
system.cpu0.dtb.hits                                0                       # DTB hits
system.cpu0.dtb.misses                              0                       # DTB misses
system.cpu0.dtb.accesses                            0                       # DTB accesses
system.cpu0.istage2_mmu.stage2_tlb.walker.pwrStateResidencyTicks::UNDEFINED 564761153000                       # Cumulative time (in ticks) in various power states
system.cpu0.istage2_mmu.stage2_tlb.walker.walks            0                       # Table walker walks requested
system.cpu0.istage2_mmu.stage2_tlb.walker.walkRequestOrigin_Requested::Data            0                       # Table walker requests started/completed, data/inst
system.cpu0.istage2_mmu.stage2_tlb.walker.walkRequestOrigin_Requested::Inst            0                       # Table walker requests started/completed, data/inst
system.cpu0.istage2_mmu.stage2_tlb.walker.walkRequestOrigin_Requested::total            0                       # Table walker requests started/completed, data/inst
system.cpu0.istage2_mmu.stage2_tlb.walker.walkRequestOrigin_Completed::Data            0                       # Table walker requests started/completed, data/inst
system.cpu0.istage2_mmu.stage2_tlb.walker.walkRequestOrigin_Completed::Inst            0                       # Table walker requests started/completed, data/inst
system.cpu0.istage2_mmu.stage2_tlb.walker.walkRequestOrigin_Completed::total            0                       # Table walker requests started/completed, data/inst
system.cpu0.istage2_mmu.stage2_tlb.walker.walkRequestOrigin::total            0                       # Table walker requests started/completed, data/inst
system.cpu0.istage2_mmu.stage2_tlb.inst_hits            0                       # ITB inst hits
system.cpu0.istage2_mmu.stage2_tlb.inst_misses            0                       # ITB inst misses
system.cpu0.istage2_mmu.stage2_tlb.read_hits            0                       # DTB read hits
system.cpu0.istage2_mmu.stage2_tlb.read_misses            0                       # DTB read misses
system.cpu0.istage2_mmu.stage2_tlb.write_hits            0                       # DTB write hits
system.cpu0.istage2_mmu.stage2_tlb.write_misses            0                       # DTB write misses
system.cpu0.istage2_mmu.stage2_tlb.flush_tlb            0                       # Number of times complete TLB was flushed
system.cpu0.istage2_mmu.stage2_tlb.flush_tlb_mva            0                       # Number of times TLB was flushed by MVA
system.cpu0.istage2_mmu.stage2_tlb.flush_tlb_mva_asid            0                       # Number of times TLB was flushed by MVA & ASID
system.cpu0.istage2_mmu.stage2_tlb.flush_tlb_asid            0                       # Number of times TLB was flushed by ASID
system.cpu0.istage2_mmu.stage2_tlb.flush_entries            0                       # Number of entries that have been flushed from TLB
system.cpu0.istage2_mmu.stage2_tlb.align_faults            0                       # Number of TLB faults due to alignment restrictions
system.cpu0.istage2_mmu.stage2_tlb.prefetch_faults            0                       # Number of TLB faults due to prefetch
system.cpu0.istage2_mmu.stage2_tlb.domain_faults            0                       # Number of TLB faults due to domain restrictions
system.cpu0.istage2_mmu.stage2_tlb.perms_faults            0                       # Number of TLB faults due to permissions restrictions
system.cpu0.istage2_mmu.stage2_tlb.read_accesses            0                       # DTB read accesses
system.cpu0.istage2_mmu.stage2_tlb.write_accesses            0                       # DTB write accesses
system.cpu0.istage2_mmu.stage2_tlb.inst_accesses            0                       # ITB inst accesses
system.cpu0.istage2_mmu.stage2_tlb.hits             0                       # DTB hits
system.cpu0.istage2_mmu.stage2_tlb.misses            0                       # DTB misses
system.cpu0.istage2_mmu.stage2_tlb.accesses            0                       # DTB accesses
system.cpu0.itb.walker.pwrStateResidencyTicks::UNDEFINED 564761153000                       # Cumulative time (in ticks) in various power states
system.cpu0.itb.walker.walks                        0                       # Table walker walks requested
system.cpu0.itb.walker.walkRequestOrigin_Requested::Data            0                       # Table walker requests started/completed, data/inst
system.cpu0.itb.walker.walkRequestOrigin_Requested::Inst            0                       # Table walker requests started/completed, data/inst
system.cpu0.itb.walker.walkRequestOrigin_Requested::total            0                       # Table walker requests started/completed, data/inst
system.cpu0.itb.walker.walkRequestOrigin_Completed::Data            0                       # Table walker requests started/completed, data/inst
system.cpu0.itb.walker.walkRequestOrigin_Completed::Inst            0                       # Table walker requests started/completed, data/inst
system.cpu0.itb.walker.walkRequestOrigin_Completed::total            0                       # Table walker requests started/completed, data/inst
system.cpu0.itb.walker.walkRequestOrigin::total            0                       # Table walker requests started/completed, data/inst
system.cpu0.itb.inst_hits                           0                       # ITB inst hits
system.cpu0.itb.inst_misses                         0                       # ITB inst misses
system.cpu0.itb.read_hits                           0                       # DTB read hits
system.cpu0.itb.read_misses                         0                       # DTB read misses
system.cpu0.itb.write_hits                          0                       # DTB write hits
system.cpu0.itb.write_misses                        0                       # DTB write misses
system.cpu0.itb.flush_tlb                           0                       # Number of times complete TLB was flushed
system.cpu0.itb.flush_tlb_mva                       0                       # Number of times TLB was flushed by MVA
system.cpu0.itb.flush_tlb_mva_asid                  0                       # Number of times TLB was flushed by MVA & ASID
system.cpu0.itb.flush_tlb_asid                      0                       # Number of times TLB was flushed by ASID
system.cpu0.itb.flush_entries                       0                       # Number of entries that have been flushed from TLB
system.cpu0.itb.align_faults                        0                       # Number of TLB faults due to alignment restrictions
system.cpu0.itb.prefetch_faults                     0                       # Number of TLB faults due to prefetch
system.cpu0.itb.domain_faults                       0                       # Number of TLB faults due to domain restrictions
system.cpu0.itb.perms_faults                        0                       # Number of TLB faults due to permissions restrictions
system.cpu0.itb.read_accesses                       0                       # DTB read accesses
system.cpu0.itb.write_accesses                      0                       # DTB write accesses
system.cpu0.itb.inst_accesses                       0                       # ITB inst accesses
system.cpu0.itb.hits                                0                       # DTB hits
system.cpu0.itb.misses                              0                       # DTB misses
system.cpu0.itb.accesses                            0                       # DTB accesses
system.cpu0.workload.num_syscalls                9847                       # Number of system calls
system.cpu0.pwrStateResidencyTicks::ON   564761153000                       # Cumulative time (in ticks) in various power states
system.cpu0.numCycles                       564761154                       # number of cpu cycles simulated
system.cpu0.numWorkItemsStarted                     0                       # number of work items this cpu started
system.cpu0.numWorkItemsCompleted                   0                       # number of work items this cpu completed
system.cpu0.fetch.icacheStallCycles         126958830                       # Number of cycles fetch is stalled on an Icache miss
system.cpu0.fetch.Insts                     657343585                       # Number of instructions fetch has processed
system.cpu0.fetch.Branches                  114281230                       # Number of branches that fetch encountered
system.cpu0.fetch.predictedBranches          73557212                       # Number of branches that fetch has predicted taken
system.cpu0.fetch.Cycles                    434851221                       # Number of cycles fetch has run and was not squashing or blocked
system.cpu0.fetch.SquashCycles                5629759                       # Number of cycles fetch has spent squashing
system.cpu0.fetch.MiscStallCycles                   3                       # Number of cycles fetch has spent waiting on interrupts, or bad addresses, or out of MSHRs
system.cpu0.fetch.PendingTrapStallCycles          226                       # Number of stall cycles due to pending traps
system.cpu0.fetch.CacheLines                 92032367                       # Number of cache lines fetched
system.cpu0.fetch.IcacheSquashes               661568                       # Number of outstanding Icache misses that were squashed
system.cpu0.fetch.rateDist::samples         564625159                       # Number of instructions fetched each cycle (Total)
system.cpu0.fetch.rateDist::mean             1.316952                       # Number of instructions fetched each cycle (Total)
system.cpu0.fetch.rateDist::stdev            0.885224                       # Number of instructions fetched each cycle (Total)
system.cpu0.fetch.rateDist::underflows              0      0.00%      0.00% # Number of instructions fetched each cycle (Total)
system.cpu0.fetch.rateDist::0               160107424     28.36%     28.36% # Number of instructions fetched each cycle (Total)
system.cpu0.fetch.rateDist::1                65451198     11.59%     39.95% # Number of instructions fetched each cycle (Total)
system.cpu0.fetch.rateDist::2               339066537     60.05%    100.00% # Number of instructions fetched each cycle (Total)
system.cpu0.fetch.rateDist::overflows               0      0.00%    100.00% # Number of instructions fetched each cycle (Total)
system.cpu0.fetch.rateDist::min_value               0                       # Number of instructions fetched each cycle (Total)
system.cpu0.fetch.rateDist::max_value               2                       # Number of instructions fetched each cycle (Total)
system.cpu0.fetch.rateDist::total           564625159                       # Number of instructions fetched each cycle (Total)
system.cpu0.fetch.branchRate                 0.202353                       # Number of branch fetches per cycle
system.cpu0.fetch.rate                       1.163932                       # Number of inst fetches per cycle
system.cpu0.decode.IdleCycles               109239750                       # Number of cycles decode is idle
system.cpu0.decode.BlockedCycles             77056371                       # Number of cycles decode is blocked
system.cpu0.decode.RunCycles                293164081                       # Number of cycles decode is running
system.cpu0.decode.UnblockCycles             82558000                       # Number of cycles decode is unblocking
system.cpu0.decode.SquashCycles               2606957                       # Number of cycles decode is squashing
system.cpu0.decode.BranchResolved            33893483                       # Number of times decode resolved a branch
system.cpu0.decode.BranchMispred               209602                       # Number of times decode detected a branch misprediction
system.cpu0.decode.DecodedInsts             730091518                       # Number of instructions handled by decode
system.cpu0.decode.SquashedInsts               357387                       # Number of squashed instructions handled by decode
system.cpu0.rename.SquashCycles               2606957                       # Number of cycles rename is squashing
system.cpu0.rename.IdleCycles               126847170                       # Number of cycles rename is idle
system.cpu0.rename.BlockCycles                8171247                       # Number of cycles rename is blocking
system.cpu0.rename.serializeStallCycles       2150747                       # count of cycles rename stalled for serializing inst
system.cpu0.rename.RunCycles                357988199                       # Number of cycles rename is running
system.cpu0.rename.UnblockCycles             66860839                       # Number of cycles rename is unblocking
system.cpu0.rename.RenamedInsts             726327638                       # Number of instructions processed by rename
system.cpu0.rename.IQFullEvents              51053684                       # Number of times rename has blocked due to IQ full
system.cpu0.rename.LQFullEvents                338858                       # Number of times rename has blocked due to LQ full
system.cpu0.rename.SQFullEvents                  7565                       # Number of times rename has blocked due to SQ full
system.cpu0.rename.RenamedOperands          923725367                       # Number of destination operands rename has renamed
system.cpu0.rename.RenameLookups           3376930517                       # Number of register rename lookups that rename has made
system.cpu0.rename.int_rename_lookups       942842296                       # Number of integer rename lookups
system.cpu0.rename.fp_rename_lookups               16                       # Number of floating rename lookups
system.cpu0.rename.CommittedMaps            803210931                       # Number of HB maps that are committed
system.cpu0.rename.UndoneMaps               120514436                       # Number of HB maps that are undone due to squashing
system.cpu0.rename.serializingInsts             97822                       # count of serializing insts renamed
system.cpu0.rename.tempSerializingInsts         49067                       # count of temporary serializing insts renamed
system.cpu0.rename.skidInsts                 71894075                       # count of insts added to the skid buffer
system.cpu0.memDep0.insertedLoads            90153807                       # Number of loads inserted to the mem dependence unit.
system.cpu0.memDep0.insertedStores           55251537                       # Number of stores inserted to the mem dependence unit.
system.cpu0.memDep0.conflictingLoads         32299975                       # Number of conflicting loads.
system.cpu0.memDep0.conflictingStores        11926600                       # Number of conflicting stores.
system.cpu0.iq.iqInstsAdded                 718875674                       # Number of instructions added to the IQ (excludes non-spec)
system.cpu0.iq.iqNonSpecInstsAdded             106328                       # Number of non-speculative instructions added to the IQ
system.cpu0.iq.iqInstsIssued                654329463                       # Number of instructions issued
system.cpu0.iq.iqSquashedInstsIssued          9108257                       # Number of squashed instructions issued
system.cpu0.iq.iqSquashedInstsExamined       76072661                       # Number of squashed instructions iterated over during squash; mainly for profiling
system.cpu0.iq.iqSquashedOperandsExamined    307911027                       # Number of squashed operands that are examined and possibly removed from graph
system.cpu0.iq.iqSquashedNonSpecRemoved           698                       # Number of squashed non-spec instructions that were removed
system.cpu0.iq.issued_per_cycle::samples    564625159                       # Number of insts issued each cycle
system.cpu0.iq.issued_per_cycle::mean        1.158874                       # Number of insts issued each cycle
system.cpu0.iq.issued_per_cycle::stdev       0.544520                       # Number of insts issued each cycle
system.cpu0.iq.issued_per_cycle::underflows            0      0.00%      0.00% # Number of insts issued each cycle
system.cpu0.iq.issued_per_cycle::0           45979868      8.14%      8.14% # Number of insts issued each cycle
system.cpu0.iq.issued_per_cycle::1          382961119     67.83%     75.97% # Number of insts issued each cycle
system.cpu0.iq.issued_per_cycle::2          135684172     24.03%    100.00% # Number of insts issued each cycle
system.cpu0.iq.issued_per_cycle::overflows            0      0.00%    100.00% # Number of insts issued each cycle
system.cpu0.iq.issued_per_cycle::min_value            0                       # Number of insts issued each cycle
system.cpu0.iq.issued_per_cycle::max_value            2                       # Number of insts issued each cycle
system.cpu0.iq.issued_per_cycle::total      564625159                       # Number of insts issued each cycle
system.cpu0.iq.fu_full::No_OpClass                  0      0.00%      0.00% # attempts to use FU when none available
system.cpu0.iq.fu_full::IntAlu              399684479     94.83%     94.83% # attempts to use FU when none available
system.cpu0.iq.fu_full::IntMult                     1      0.00%     94.83% # attempts to use FU when none available
system.cpu0.iq.fu_full::IntDiv                      0      0.00%     94.83% # attempts to use FU when none available
system.cpu0.iq.fu_full::FloatAdd                    0      0.00%     94.83% # attempts to use FU when none available
system.cpu0.iq.fu_full::FloatCmp                    0      0.00%     94.83% # attempts to use FU when none available
system.cpu0.iq.fu_full::FloatCvt                    0      0.00%     94.83% # attempts to use FU when none available
system.cpu0.iq.fu_full::FloatMult                   0      0.00%     94.83% # attempts to use FU when none available
system.cpu0.iq.fu_full::FloatMultAcc                0      0.00%     94.83% # attempts to use FU when none available
system.cpu0.iq.fu_full::FloatDiv                    0      0.00%     94.83% # attempts to use FU when none available
system.cpu0.iq.fu_full::FloatMisc                   0      0.00%     94.83% # attempts to use FU when none available
system.cpu0.iq.fu_full::FloatSqrt                   0      0.00%     94.83% # attempts to use FU when none available
system.cpu0.iq.fu_full::SimdAdd                     0      0.00%     94.83% # attempts to use FU when none available
system.cpu0.iq.fu_full::SimdAddAcc                  0      0.00%     94.83% # attempts to use FU when none available
system.cpu0.iq.fu_full::SimdAlu                     0      0.00%     94.83% # attempts to use FU when none available
system.cpu0.iq.fu_full::SimdCmp                     0      0.00%     94.83% # attempts to use FU when none available
system.cpu0.iq.fu_full::SimdCvt                     0      0.00%     94.83% # attempts to use FU when none available
system.cpu0.iq.fu_full::SimdMisc                    0      0.00%     94.83% # attempts to use FU when none available
system.cpu0.iq.fu_full::SimdMult                    0      0.00%     94.83% # attempts to use FU when none available
system.cpu0.iq.fu_full::SimdMultAcc                 0      0.00%     94.83% # attempts to use FU when none available
system.cpu0.iq.fu_full::SimdShift                   0      0.00%     94.83% # attempts to use FU when none available
system.cpu0.iq.fu_full::SimdShiftAcc                0      0.00%     94.83% # attempts to use FU when none available
system.cpu0.iq.fu_full::SimdSqrt                    0      0.00%     94.83% # attempts to use FU when none available
system.cpu0.iq.fu_full::SimdFloatAdd                0      0.00%     94.83% # attempts to use FU when none available
system.cpu0.iq.fu_full::SimdFloatAlu                0      0.00%     94.83% # attempts to use FU when none available
system.cpu0.iq.fu_full::SimdFloatCmp                0      0.00%     94.83% # attempts to use FU when none available
system.cpu0.iq.fu_full::SimdFloatCvt                0      0.00%     94.83% # attempts to use FU when none available
system.cpu0.iq.fu_full::SimdFloatDiv                0      0.00%     94.83% # attempts to use FU when none available
system.cpu0.iq.fu_full::SimdFloatMisc               0      0.00%     94.83% # attempts to use FU when none available
system.cpu0.iq.fu_full::SimdFloatMult               0      0.00%     94.83% # attempts to use FU when none available
system.cpu0.iq.fu_full::SimdFloatMultAcc            0      0.00%     94.83% # attempts to use FU when none available
system.cpu0.iq.fu_full::SimdFloatSqrt               0      0.00%     94.83% # attempts to use FU when none available
system.cpu0.iq.fu_full::MemRead              15583434      3.70%     98.53% # attempts to use FU when none available
system.cpu0.iq.fu_full::MemWrite              6188104      1.47%    100.00% # attempts to use FU when none available
system.cpu0.iq.fu_full::FloatMemRead                0      0.00%    100.00% # attempts to use FU when none available
system.cpu0.iq.fu_full::FloatMemWrite               0      0.00%    100.00% # attempts to use FU when none available
system.cpu0.iq.fu_full::IprAccess                   0      0.00%    100.00% # attempts to use FU when none available
system.cpu0.iq.fu_full::InstPrefetch                0      0.00%    100.00% # attempts to use FU when none available
system.cpu0.iq.FU_type_0::No_OpClass                0      0.00%      0.00% # Type of FU issued
system.cpu0.iq.FU_type_0::IntAlu            510726998     78.05%     78.05% # Type of FU issued
system.cpu0.iq.FU_type_0::IntMult             3742922      0.57%     78.63% # Type of FU issued
system.cpu0.iq.FU_type_0::IntDiv                    0      0.00%     78.63% # Type of FU issued
system.cpu0.iq.FU_type_0::FloatAdd                  0      0.00%     78.63% # Type of FU issued
system.cpu0.iq.FU_type_0::FloatCmp                  0      0.00%     78.63% # Type of FU issued
system.cpu0.iq.FU_type_0::FloatCvt                  0      0.00%     78.63% # Type of FU issued
system.cpu0.iq.FU_type_0::FloatMult                 0      0.00%     78.63% # Type of FU issued
system.cpu0.iq.FU_type_0::FloatMultAcc              0      0.00%     78.63% # Type of FU issued
system.cpu0.iq.FU_type_0::FloatDiv                  0      0.00%     78.63% # Type of FU issued
system.cpu0.iq.FU_type_0::FloatMisc                 0      0.00%     78.63% # Type of FU issued
system.cpu0.iq.FU_type_0::FloatSqrt                 0      0.00%     78.63% # Type of FU issued
system.cpu0.iq.FU_type_0::SimdAdd                   0      0.00%     78.63% # Type of FU issued
system.cpu0.iq.FU_type_0::SimdAddAcc                0      0.00%     78.63% # Type of FU issued
system.cpu0.iq.FU_type_0::SimdAlu                   0      0.00%     78.63% # Type of FU issued
system.cpu0.iq.FU_type_0::SimdCmp                   0      0.00%     78.63% # Type of FU issued
system.cpu0.iq.FU_type_0::SimdCvt                   0      0.00%     78.63% # Type of FU issued
system.cpu0.iq.FU_type_0::SimdMisc                  0      0.00%     78.63% # Type of FU issued
system.cpu0.iq.FU_type_0::SimdMult                  0      0.00%     78.63% # Type of FU issued
system.cpu0.iq.FU_type_0::SimdMultAcc               0      0.00%     78.63% # Type of FU issued
system.cpu0.iq.FU_type_0::SimdShift                 0      0.00%     78.63% # Type of FU issued
system.cpu0.iq.FU_type_0::SimdShiftAcc              0      0.00%     78.63% # Type of FU issued
system.cpu0.iq.FU_type_0::SimdSqrt                  0      0.00%     78.63% # Type of FU issued
system.cpu0.iq.FU_type_0::SimdFloatAdd              0      0.00%     78.63% # Type of FU issued
system.cpu0.iq.FU_type_0::SimdFloatAlu              0      0.00%     78.63% # Type of FU issued
system.cpu0.iq.FU_type_0::SimdFloatCmp              0      0.00%     78.63% # Type of FU issued
system.cpu0.iq.FU_type_0::SimdFloatCvt              0      0.00%     78.63% # Type of FU issued
system.cpu0.iq.FU_type_0::SimdFloatDiv              0      0.00%     78.63% # Type of FU issued
system.cpu0.iq.FU_type_0::SimdFloatMisc         47348      0.01%     78.63% # Type of FU issued
system.cpu0.iq.FU_type_0::SimdFloatMult             0      0.00%     78.63% # Type of FU issued
system.cpu0.iq.FU_type_0::SimdFloatMultAcc            0      0.00%     78.63% # Type of FU issued
system.cpu0.iq.FU_type_0::SimdFloatSqrt             0      0.00%     78.63% # Type of FU issued
system.cpu0.iq.FU_type_0::MemRead            87496020     13.37%     92.00% # Type of FU issued
system.cpu0.iq.FU_type_0::MemWrite           52316159      8.00%    100.00% # Type of FU issued
system.cpu0.iq.FU_type_0::FloatMemRead              0      0.00%    100.00% # Type of FU issued
system.cpu0.iq.FU_type_0::FloatMemWrite            16      0.00%    100.00% # Type of FU issued
system.cpu0.iq.FU_type_0::IprAccess                 0      0.00%    100.00% # Type of FU issued
system.cpu0.iq.FU_type_0::InstPrefetch              0      0.00%    100.00% # Type of FU issued
system.cpu0.iq.FU_type_0::total             654329463                       # Type of FU issued
system.cpu0.iq.rate                          1.158595                       # Inst issue rate
system.cpu0.iq.fu_busy_cnt                  421456018                       # FU busy when requested
system.cpu0.iq.fu_busy_rate                  0.644104                       # FU busy rate (busy events/executed inst)
system.cpu0.iq.int_inst_queue_reads        2303848328                       # Number of integer instruction queue reads
system.cpu0.iq.int_inst_queue_writes        795064715                       # Number of integer instruction queue writes
system.cpu0.iq.int_inst_queue_wakeup_accesses    652271103                       # Number of integer instruction queue wakeup accesses
system.cpu0.iq.fp_inst_queue_reads                 32                       # Number of floating instruction queue reads
system.cpu0.iq.fp_inst_queue_writes                16                       # Number of floating instruction queue writes
system.cpu0.iq.fp_inst_queue_wakeup_accesses           16                       # Number of floating instruction queue wakeup accesses
system.cpu0.iq.int_alu_accesses            1075785465                       # Number of integer alu accesses
system.cpu0.iq.fp_alu_accesses                     16                       # Number of floating point alu accesses
system.cpu0.iew.lsq.thread0.forwLoads        13372933                       # Number of loads that had data forwarded from stores
system.cpu0.iew.lsq.thread0.invAddrLoads            0                       # Number of loads ignored due to an invalid address
system.cpu0.iew.lsq.thread0.squashedLoads      6113586                       # Number of loads squashed
system.cpu0.iew.lsq.thread0.ignoredResponses         2478                       # Number of memory responses ignored because the instruction is squashed
system.cpu0.iew.lsq.thread0.memOrderViolation        10187                       # Number of memory ordering violations
system.cpu0.iew.lsq.thread0.squashedStores      3967500                       # Number of stores squashed
system.cpu0.iew.lsq.thread0.invAddrSwpfs            0                       # Number of software prefetches ignored due to an invalid address
system.cpu0.iew.lsq.thread0.blockedLoads            0                       # Number of blocked loads due to partial load-store forwarding
system.cpu0.iew.lsq.thread0.rescheduledLoads       796266                       # Number of loads that were rescheduled
system.cpu0.iew.lsq.thread0.cacheBlocked         5125                       # Number of times an access to memory failed due to the cache being blocked
system.cpu0.iew.iewIdleCycles                       0                       # Number of cycles IEW is idle
system.cpu0.iew.iewSquashCycles               2606957                       # Number of cycles IEW is squashing
system.cpu0.iew.iewBlockCycles                7999673                       # Number of cycles IEW is blocking
system.cpu0.iew.iewUnblockCycles               125769                       # Number of cycles IEW is unblocking
system.cpu0.iew.iewDispatchedInsts          718982037                       # Number of instructions dispatched to IQ
system.cpu0.iew.iewDispSquashedInsts           547078                       # Number of squashed instructions skipped by dispatch
system.cpu0.iew.iewDispLoadInsts             90153807                       # Number of dispatched load instructions
system.cpu0.iew.iewDispStoreInsts            55251537                       # Number of dispatched store instructions
system.cpu0.iew.iewDispNonSpecInsts             48832                       # Number of dispatched non-speculative instructions
system.cpu0.iew.iewIQFullEvents                   330                       # Number of times the IQ has become full, causing a stall
system.cpu0.iew.iewLSQFullEvents                 9645                       # Number of times the LSQ has become full, causing a stall
system.cpu0.iew.memOrderViolationEvents         10187                       # Number of memory order violations
system.cpu0.iew.predictedTakenIncorrect       1377153                       # Number of branches that were predicted taken incorrectly
system.cpu0.iew.predictedNotTakenIncorrect      1368635                       # Number of branches that were predicted not taken incorrectly
system.cpu0.iew.branchMispredicts             2745788                       # Number of branch mispredicts detected at execute
system.cpu0.iew.iewExecutedInsts            653507516                       # Number of executed instructions
system.cpu0.iew.iewExecLoadInsts             87251412                       # Number of load instructions executed
system.cpu0.iew.iewExecSquashedInsts           821947                       # Number of squashed instructions skipped in execute
system.cpu0.iew.exec_swp                            0                       # number of swp insts executed
system.cpu0.iew.exec_nop                           35                       # number of nop insts executed
system.cpu0.iew.exec_refs                   139451671                       # number of memory reference insts executed
system.cpu0.iew.exec_branches                99644368                       # Number of branches executed
system.cpu0.iew.exec_stores                  52200259                       # Number of stores executed
system.cpu0.iew.exec_rate                    1.157140                       # Inst execution rate
system.cpu0.iew.wb_sent                     652364861                       # cumulative count of insts sent to commit
system.cpu0.iew.wb_count                    652271119                       # cumulative count of insts written-back
system.cpu0.iew.wb_producers                483343241                       # num instructions producing a value
system.cpu0.iew.wb_consumers               1149332229                       # num instructions consuming a value
system.cpu0.iew.wb_rate                      1.154950                       # insts written-back per cycle
system.cpu0.iew.wb_fanout                    0.420543                       # average fanout of values written-back
system.cpu0.commit.commitSquashedInsts       76072728                       # The number of squashed insts skipped by commit
system.cpu0.commit.commitNonSpecStalls         105630                       # The number of times commit has been forced to stall to communicate backwards
system.cpu0.commit.branchMispredicts          2587618                       # The number of times a branch was mispredicted
system.cpu0.commit.committed_per_cycle::samples    554032472                       # Number of insts commited each cycle
system.cpu0.commit.committed_per_cycle::mean     1.160418                       # Number of insts commited each cycle
system.cpu0.commit.committed_per_cycle::stdev     1.032921                       # Number of insts commited each cycle
system.cpu0.commit.committed_per_cycle::underflows            0      0.00%      0.00% # Number of insts commited each cycle
system.cpu0.commit.committed_per_cycle::0     73112362     13.20%     13.20% # Number of insts commited each cycle
system.cpu0.commit.committed_per_cycle::1    399398266     72.09%     85.29% # Number of insts commited each cycle
system.cpu0.commit.committed_per_cycle::2     49070365      8.86%     94.14% # Number of insts commited each cycle
system.cpu0.commit.committed_per_cycle::3     14498578      2.62%     96.76% # Number of insts commited each cycle
system.cpu0.commit.committed_per_cycle::4      6200266      1.12%     97.88% # Number of insts commited each cycle
system.cpu0.commit.committed_per_cycle::5      1133199      0.20%     98.08% # Number of insts commited each cycle
system.cpu0.commit.committed_per_cycle::6      3514702      0.63%     98.72% # Number of insts commited each cycle
system.cpu0.commit.committed_per_cycle::7      6518532      1.18%     99.89% # Number of insts commited each cycle
system.cpu0.commit.committed_per_cycle::8       586202      0.11%    100.00% # Number of insts commited each cycle
system.cpu0.commit.committed_per_cycle::overflows            0      0.00%    100.00% # Number of insts commited each cycle
system.cpu0.commit.committed_per_cycle::min_value            0                       # Number of insts commited each cycle
system.cpu0.commit.committed_per_cycle::max_value            8                       # Number of insts commited each cycle
system.cpu0.commit.committed_per_cycle::total    554032472                       # Number of insts commited each cycle
system.cpu0.commit.committedInsts           568667623                       # Number of instructions committed
system.cpu0.commit.committedOps             642909341                       # Number of ops (including micro ops) committed
system.cpu0.commit.swp_count                        0                       # Number of s/w prefetches committed
system.cpu0.commit.refs                     135324258                       # Number of memory references committed
system.cpu0.commit.loads                     84040221                       # Number of loads committed
system.cpu0.commit.membars                      57488                       # Number of memory barriers committed
system.cpu0.commit.branches                  98708087                       # Number of branches committed
system.cpu0.commit.fp_insts                        16                       # Number of committed floating point instructions.
system.cpu0.commit.int_insts                587305356                       # Number of committed integer instructions.
system.cpu0.commit.function_calls            18093734                       # Number of function calls committed.
system.cpu0.commit.op_class_0::No_OpClass            0      0.00%      0.00% # Class of committed instruction
system.cpu0.commit.op_class_0::IntAlu       503928746     78.38%     78.38% # Class of committed instruction
system.cpu0.commit.op_class_0::IntMult        3608989      0.56%     78.94% # Class of committed instruction
system.cpu0.commit.op_class_0::IntDiv               0      0.00%     78.94% # Class of committed instruction
system.cpu0.commit.op_class_0::FloatAdd             0      0.00%     78.94% # Class of committed instruction
system.cpu0.commit.op_class_0::FloatCmp             0      0.00%     78.94% # Class of committed instruction
system.cpu0.commit.op_class_0::FloatCvt             0      0.00%     78.94% # Class of committed instruction
system.cpu0.commit.op_class_0::FloatMult            0      0.00%     78.94% # Class of committed instruction
system.cpu0.commit.op_class_0::FloatMultAcc            0      0.00%     78.94% # Class of committed instruction
system.cpu0.commit.op_class_0::FloatDiv             0      0.00%     78.94% # Class of committed instruction
system.cpu0.commit.op_class_0::FloatMisc            0      0.00%     78.94% # Class of committed instruction
system.cpu0.commit.op_class_0::FloatSqrt            0      0.00%     78.94% # Class of committed instruction
system.cpu0.commit.op_class_0::SimdAdd              0      0.00%     78.94% # Class of committed instruction
system.cpu0.commit.op_class_0::SimdAddAcc            0      0.00%     78.94% # Class of committed instruction
system.cpu0.commit.op_class_0::SimdAlu              0      0.00%     78.94% # Class of committed instruction
system.cpu0.commit.op_class_0::SimdCmp              0      0.00%     78.94% # Class of committed instruction
system.cpu0.commit.op_class_0::SimdCvt              0      0.00%     78.94% # Class of committed instruction
system.cpu0.commit.op_class_0::SimdMisc             0      0.00%     78.94% # Class of committed instruction
system.cpu0.commit.op_class_0::SimdMult             0      0.00%     78.94% # Class of committed instruction
system.cpu0.commit.op_class_0::SimdMultAcc            0      0.00%     78.94% # Class of committed instruction
system.cpu0.commit.op_class_0::SimdShift            0      0.00%     78.94% # Class of committed instruction
system.cpu0.commit.op_class_0::SimdShiftAcc            0      0.00%     78.94% # Class of committed instruction
system.cpu0.commit.op_class_0::SimdSqrt             0      0.00%     78.94% # Class of committed instruction
system.cpu0.commit.op_class_0::SimdFloatAdd            0      0.00%     78.94% # Class of committed instruction
system.cpu0.commit.op_class_0::SimdFloatAlu            0      0.00%     78.94% # Class of committed instruction
system.cpu0.commit.op_class_0::SimdFloatCmp            0      0.00%     78.94% # Class of committed instruction
system.cpu0.commit.op_class_0::SimdFloatCvt            0      0.00%     78.94% # Class of committed instruction
system.cpu0.commit.op_class_0::SimdFloatDiv            0      0.00%     78.94% # Class of committed instruction
system.cpu0.commit.op_class_0::SimdFloatMisc        47348      0.01%     78.95% # Class of committed instruction
system.cpu0.commit.op_class_0::SimdFloatMult            0      0.00%     78.95% # Class of committed instruction
system.cpu0.commit.op_class_0::SimdFloatMultAcc            0      0.00%     78.95% # Class of committed instruction
system.cpu0.commit.op_class_0::SimdFloatSqrt            0      0.00%     78.95% # Class of committed instruction
system.cpu0.commit.op_class_0::MemRead       84040221     13.07%     92.02% # Class of committed instruction
system.cpu0.commit.op_class_0::MemWrite      51284021      7.98%    100.00% # Class of committed instruction
system.cpu0.commit.op_class_0::FloatMemRead            0      0.00%    100.00% # Class of committed instruction
system.cpu0.commit.op_class_0::FloatMemWrite           16      0.00%    100.00% # Class of committed instruction
system.cpu0.commit.op_class_0::IprAccess            0      0.00%    100.00% # Class of committed instruction
system.cpu0.commit.op_class_0::InstPrefetch            0      0.00%    100.00% # Class of committed instruction
system.cpu0.commit.op_class_0::total        642909341                       # Class of committed instruction
system.cpu0.commit.bw_lim_events               586202                       # number cycles where commit BW limit reached
system.cpu0.rob.rob_reads                  1272300282                       # The number of ROB reads
system.cpu0.rob.rob_writes                 1448557107                       # The number of ROB writes
system.cpu0.timesIdled                          42030                       # Number of times that the entire CPU went into an idle state and unscheduled itself
system.cpu0.idleCycles                         135995                       # Total number of cycles that the CPU has spent unscheduled due to idling
system.cpu0.committedInsts                  568667623                       # Number of Instructions Simulated
system.cpu0.committedOps                    642909341                       # Number of Ops (including micro ops) Simulated
system.cpu0.cpi                              0.993130                       # CPI: Cycles Per Instruction
system.cpu0.cpi_total                        0.993130                       # CPI: Total CPI of All Threads
system.cpu0.ipc                              1.006917                       # IPC: Instructions Per Cycle
system.cpu0.ipc_total                        1.006917                       # IPC: Total IPC of All Threads
system.cpu0.int_regfile_reads               775154466                       # number of integer regfile reads
system.cpu0.int_regfile_writes              466881774                       # number of integer regfile writes
system.cpu0.fp_regfile_reads                       16                       # number of floating regfile reads
system.cpu0.cc_regfile_reads               2245280190                       # number of cc regfile reads
system.cpu0.cc_regfile_writes               336433238                       # number of cc regfile writes
system.cpu0.misc_regfile_reads              137189740                       # number of misc regfile reads
system.cpu0.misc_regfile_writes                 76545                       # number of misc regfile writes
system.cpu0.dcache.tags.pwrStateResidencyTicks::UNDEFINED 564761153000                       # Cumulative time (in ticks) in various power states
system.cpu0.dcache.tags.replacements            67334                       # number of replacements
system.cpu0.dcache.tags.tagsinuse          127.995460                       # Cycle average of tags in use
system.cpu0.dcache.tags.total_refs          121376494                       # Total number of references to valid blocks.
system.cpu0.dcache.tags.sampled_refs            67462                       # Sample count of references to valid blocks.
system.cpu0.dcache.tags.avg_refs          1799.183155                       # Average number of references to valid blocks.
system.cpu0.dcache.tags.warmup_cycle       1044759500                       # Cycle when the warmup percentage was hit.
system.cpu0.dcache.tags.occ_blocks::cpu0.data   127.995460                       # Average occupied blocks per requestor
system.cpu0.dcache.tags.occ_percent::cpu0.data     0.999965                       # Average percentage of cache occupancy
system.cpu0.dcache.tags.occ_percent::total     0.999965                       # Average percentage of cache occupancy
system.cpu0.dcache.tags.occ_task_id_blocks::1024          128                       # Occupied blocks per task id
system.cpu0.dcache.tags.age_task_id_blocks_1024::0           29                       # Occupied blocks per task id
system.cpu0.dcache.tags.age_task_id_blocks_1024::1           16                       # Occupied blocks per task id
system.cpu0.dcache.tags.age_task_id_blocks_1024::2           80                       # Occupied blocks per task id
system.cpu0.dcache.tags.age_task_id_blocks_1024::3            3                       # Occupied blocks per task id
system.cpu0.dcache.tags.occ_task_id_percent::1024            1                       # Percentage of cache occupancy per task id
system.cpu0.dcache.tags.tag_accesses        485977326                       # Number of tag accesses
system.cpu0.dcache.tags.data_accesses       485977326                       # Number of data accesses
system.cpu0.dcache.pwrStateResidencyTicks::UNDEFINED 564761153000                       # Cumulative time (in ticks) in various power states
system.cpu0.dcache.ReadReq_hits::cpu0.data     70262243                       # number of ReadReq hits
system.cpu0.dcache.ReadReq_hits::total       70262243                       # number of ReadReq hits
system.cpu0.dcache.WriteReq_hits::cpu0.data     51037943                       # number of WriteReq hits
system.cpu0.dcache.WriteReq_hits::total      51037943                       # number of WriteReq hits
system.cpu0.dcache.LoadLockedReq_hits::cpu0.data        38059                       # number of LoadLockedReq hits
system.cpu0.dcache.LoadLockedReq_hits::total        38059                       # number of LoadLockedReq hits
system.cpu0.dcache.StoreCondReq_hits::cpu0.data        38249                       # number of StoreCondReq hits
system.cpu0.dcache.StoreCondReq_hits::total        38249                       # number of StoreCondReq hits
system.cpu0.dcache.demand_hits::cpu0.data    121300186                       # number of demand (read+write) hits
system.cpu0.dcache.demand_hits::total       121300186                       # number of demand (read+write) hits
system.cpu0.dcache.overall_hits::cpu0.data    121300186                       # number of overall hits
system.cpu0.dcache.overall_hits::total      121300186                       # number of overall hits
system.cpu0.dcache.ReadReq_misses::cpu0.data        55159                       # number of ReadReq misses
system.cpu0.dcache.ReadReq_misses::total        55159                       # number of ReadReq misses
system.cpu0.dcache.WriteReq_misses::cpu0.data        45610                       # number of WriteReq misses
system.cpu0.dcache.WriteReq_misses::total        45610                       # number of WriteReq misses
system.cpu0.dcache.LoadLockedReq_misses::cpu0.data          203                       # number of LoadLockedReq misses
system.cpu0.dcache.LoadLockedReq_misses::total          203                       # number of LoadLockedReq misses
system.cpu0.dcache.demand_misses::cpu0.data       100769                       # number of demand (read+write) misses
system.cpu0.dcache.demand_misses::total        100769                       # number of demand (read+write) misses
system.cpu0.dcache.overall_misses::cpu0.data       100769                       # number of overall misses
system.cpu0.dcache.overall_misses::total       100769                       # number of overall misses
system.cpu0.dcache.ReadReq_miss_latency::cpu0.data    885385000                       # number of ReadReq miss cycles
system.cpu0.dcache.ReadReq_miss_latency::total    885385000                       # number of ReadReq miss cycles
system.cpu0.dcache.WriteReq_miss_latency::cpu0.data   1026084171                       # number of WriteReq miss cycles
system.cpu0.dcache.WriteReq_miss_latency::total   1026084171                       # number of WriteReq miss cycles
system.cpu0.dcache.LoadLockedReq_miss_latency::cpu0.data      3065000                       # number of LoadLockedReq miss cycles
system.cpu0.dcache.LoadLockedReq_miss_latency::total      3065000                       # number of LoadLockedReq miss cycles
system.cpu0.dcache.demand_miss_latency::cpu0.data   1911469171                       # number of demand (read+write) miss cycles
system.cpu0.dcache.demand_miss_latency::total   1911469171                       # number of demand (read+write) miss cycles
system.cpu0.dcache.overall_miss_latency::cpu0.data   1911469171                       # number of overall miss cycles
system.cpu0.dcache.overall_miss_latency::total   1911469171                       # number of overall miss cycles
system.cpu0.dcache.ReadReq_accesses::cpu0.data     70317402                       # number of ReadReq accesses(hits+misses)
system.cpu0.dcache.ReadReq_accesses::total     70317402                       # number of ReadReq accesses(hits+misses)
system.cpu0.dcache.WriteReq_accesses::cpu0.data     51083553                       # number of WriteReq accesses(hits+misses)
system.cpu0.dcache.WriteReq_accesses::total     51083553                       # number of WriteReq accesses(hits+misses)
system.cpu0.dcache.LoadLockedReq_accesses::cpu0.data        38262                       # number of LoadLockedReq accesses(hits+misses)
system.cpu0.dcache.LoadLockedReq_accesses::total        38262                       # number of LoadLockedReq accesses(hits+misses)
system.cpu0.dcache.StoreCondReq_accesses::cpu0.data        38249                       # number of StoreCondReq accesses(hits+misses)
system.cpu0.dcache.StoreCondReq_accesses::total        38249                       # number of StoreCondReq accesses(hits+misses)
system.cpu0.dcache.demand_accesses::cpu0.data    121400955                       # number of demand (read+write) accesses
system.cpu0.dcache.demand_accesses::total    121400955                       # number of demand (read+write) accesses
system.cpu0.dcache.overall_accesses::cpu0.data    121400955                       # number of overall (read+write) accesses
system.cpu0.dcache.overall_accesses::total    121400955                       # number of overall (read+write) accesses
system.cpu0.dcache.ReadReq_miss_rate::cpu0.data     0.000784                       # miss rate for ReadReq accesses
system.cpu0.dcache.ReadReq_miss_rate::total     0.000784                       # miss rate for ReadReq accesses
system.cpu0.dcache.WriteReq_miss_rate::cpu0.data     0.000893                       # miss rate for WriteReq accesses
system.cpu0.dcache.WriteReq_miss_rate::total     0.000893                       # miss rate for WriteReq accesses
system.cpu0.dcache.LoadLockedReq_miss_rate::cpu0.data     0.005306                       # miss rate for LoadLockedReq accesses
system.cpu0.dcache.LoadLockedReq_miss_rate::total     0.005306                       # miss rate for LoadLockedReq accesses
system.cpu0.dcache.demand_miss_rate::cpu0.data     0.000830                       # miss rate for demand accesses
system.cpu0.dcache.demand_miss_rate::total     0.000830                       # miss rate for demand accesses
system.cpu0.dcache.overall_miss_rate::cpu0.data     0.000830                       # miss rate for overall accesses
system.cpu0.dcache.overall_miss_rate::total     0.000830                       # miss rate for overall accesses
system.cpu0.dcache.ReadReq_avg_miss_latency::cpu0.data 16051.505647                       # average ReadReq miss latency
system.cpu0.dcache.ReadReq_avg_miss_latency::total 16051.505647                       # average ReadReq miss latency
system.cpu0.dcache.WriteReq_avg_miss_latency::cpu0.data 22496.912322                       # average WriteReq miss latency
system.cpu0.dcache.WriteReq_avg_miss_latency::total 22496.912322                       # average WriteReq miss latency
system.cpu0.dcache.LoadLockedReq_avg_miss_latency::cpu0.data 15098.522167                       # average LoadLockedReq miss latency
system.cpu0.dcache.LoadLockedReq_avg_miss_latency::total 15098.522167                       # average LoadLockedReq miss latency
system.cpu0.dcache.demand_avg_miss_latency::cpu0.data 18968.821473                       # average overall miss latency
system.cpu0.dcache.demand_avg_miss_latency::total 18968.821473                       # average overall miss latency
system.cpu0.dcache.overall_avg_miss_latency::cpu0.data 18968.821473                       # average overall miss latency
system.cpu0.dcache.overall_avg_miss_latency::total 18968.821473                       # average overall miss latency
system.cpu0.dcache.blocked_cycles::no_mshrs        19601                       # number of cycles access was blocked
system.cpu0.dcache.blocked_cycles::no_targets            0                       # number of cycles access was blocked
system.cpu0.dcache.blocked::no_mshrs             1691                       # number of cycles access was blocked
system.cpu0.dcache.blocked::no_targets              0                       # number of cycles access was blocked
system.cpu0.dcache.avg_blocked_cycles::no_mshrs    11.591366                       # average number of cycles each access was blocked
system.cpu0.dcache.avg_blocked_cycles::no_targets          nan                       # average number of cycles each access was blocked
system.cpu0.dcache.writebacks::writebacks        45286                       # number of writebacks
system.cpu0.dcache.writebacks::total            45286                       # number of writebacks
system.cpu0.dcache.ReadReq_mshr_hits::cpu0.data        16150                       # number of ReadReq MSHR hits
system.cpu0.dcache.ReadReq_mshr_hits::total        16150                       # number of ReadReq MSHR hits
system.cpu0.dcache.WriteReq_mshr_hits::cpu0.data        17169                       # number of WriteReq MSHR hits
system.cpu0.dcache.WriteReq_mshr_hits::total        17169                       # number of WriteReq MSHR hits
system.cpu0.dcache.LoadLockedReq_mshr_hits::cpu0.data          191                       # number of LoadLockedReq MSHR hits
system.cpu0.dcache.LoadLockedReq_mshr_hits::total          191                       # number of LoadLockedReq MSHR hits
system.cpu0.dcache.demand_mshr_hits::cpu0.data        33319                       # number of demand (read+write) MSHR hits
system.cpu0.dcache.demand_mshr_hits::total        33319                       # number of demand (read+write) MSHR hits
system.cpu0.dcache.overall_mshr_hits::cpu0.data        33319                       # number of overall MSHR hits
system.cpu0.dcache.overall_mshr_hits::total        33319                       # number of overall MSHR hits
system.cpu0.dcache.ReadReq_mshr_misses::cpu0.data        39009                       # number of ReadReq MSHR misses
system.cpu0.dcache.ReadReq_mshr_misses::total        39009                       # number of ReadReq MSHR misses
system.cpu0.dcache.WriteReq_mshr_misses::cpu0.data        28441                       # number of WriteReq MSHR misses
system.cpu0.dcache.WriteReq_mshr_misses::total        28441                       # number of WriteReq MSHR misses
system.cpu0.dcache.LoadLockedReq_mshr_misses::cpu0.data           12                       # number of LoadLockedReq MSHR misses
system.cpu0.dcache.LoadLockedReq_mshr_misses::total           12                       # number of LoadLockedReq MSHR misses
system.cpu0.dcache.demand_mshr_misses::cpu0.data        67450                       # number of demand (read+write) MSHR misses
system.cpu0.dcache.demand_mshr_misses::total        67450                       # number of demand (read+write) MSHR misses
system.cpu0.dcache.overall_mshr_misses::cpu0.data        67450                       # number of overall MSHR misses
system.cpu0.dcache.overall_mshr_misses::total        67450                       # number of overall MSHR misses
system.cpu0.dcache.ReadReq_mshr_miss_latency::cpu0.data    557967000                       # number of ReadReq MSHR miss cycles
system.cpu0.dcache.ReadReq_mshr_miss_latency::total    557967000                       # number of ReadReq MSHR miss cycles
system.cpu0.dcache.WriteReq_mshr_miss_latency::cpu0.data    557074041                       # number of WriteReq MSHR miss cycles
system.cpu0.dcache.WriteReq_mshr_miss_latency::total    557074041                       # number of WriteReq MSHR miss cycles
system.cpu0.dcache.LoadLockedReq_mshr_miss_latency::cpu0.data       260000                       # number of LoadLockedReq MSHR miss cycles
system.cpu0.dcache.LoadLockedReq_mshr_miss_latency::total       260000                       # number of LoadLockedReq MSHR miss cycles
system.cpu0.dcache.demand_mshr_miss_latency::cpu0.data   1115041041                       # number of demand (read+write) MSHR miss cycles
system.cpu0.dcache.demand_mshr_miss_latency::total   1115041041                       # number of demand (read+write) MSHR miss cycles
system.cpu0.dcache.overall_mshr_miss_latency::cpu0.data   1115041041                       # number of overall MSHR miss cycles
system.cpu0.dcache.overall_mshr_miss_latency::total   1115041041                       # number of overall MSHR miss cycles
system.cpu0.dcache.ReadReq_mshr_miss_rate::cpu0.data     0.000555                       # mshr miss rate for ReadReq accesses
system.cpu0.dcache.ReadReq_mshr_miss_rate::total     0.000555                       # mshr miss rate for ReadReq accesses
system.cpu0.dcache.WriteReq_mshr_miss_rate::cpu0.data     0.000557                       # mshr miss rate for WriteReq accesses
system.cpu0.dcache.WriteReq_mshr_miss_rate::total     0.000557                       # mshr miss rate for WriteReq accesses
system.cpu0.dcache.LoadLockedReq_mshr_miss_rate::cpu0.data     0.000314                       # mshr miss rate for LoadLockedReq accesses
system.cpu0.dcache.LoadLockedReq_mshr_miss_rate::total     0.000314                       # mshr miss rate for LoadLockedReq accesses
system.cpu0.dcache.demand_mshr_miss_rate::cpu0.data     0.000556                       # mshr miss rate for demand accesses
system.cpu0.dcache.demand_mshr_miss_rate::total     0.000556                       # mshr miss rate for demand accesses
system.cpu0.dcache.overall_mshr_miss_rate::cpu0.data     0.000556                       # mshr miss rate for overall accesses
system.cpu0.dcache.overall_mshr_miss_rate::total     0.000556                       # mshr miss rate for overall accesses
system.cpu0.dcache.ReadReq_avg_mshr_miss_latency::cpu0.data 14303.545336                       # average ReadReq mshr miss latency
system.cpu0.dcache.ReadReq_avg_mshr_miss_latency::total 14303.545336                       # average ReadReq mshr miss latency
system.cpu0.dcache.WriteReq_avg_mshr_miss_latency::cpu0.data 19587.006118                       # average WriteReq mshr miss latency
system.cpu0.dcache.WriteReq_avg_mshr_miss_latency::total 19587.006118                       # average WriteReq mshr miss latency
system.cpu0.dcache.LoadLockedReq_avg_mshr_miss_latency::cpu0.data 21666.666667                       # average LoadLockedReq mshr miss latency
system.cpu0.dcache.LoadLockedReq_avg_mshr_miss_latency::total 21666.666667                       # average LoadLockedReq mshr miss latency
system.cpu0.dcache.demand_avg_mshr_miss_latency::cpu0.data 16531.371994                       # average overall mshr miss latency
system.cpu0.dcache.demand_avg_mshr_miss_latency::total 16531.371994                       # average overall mshr miss latency
system.cpu0.dcache.overall_avg_mshr_miss_latency::cpu0.data 16531.371994                       # average overall mshr miss latency
system.cpu0.dcache.overall_avg_mshr_miss_latency::total 16531.371994                       # average overall mshr miss latency
system.cpu0.icache.tags.pwrStateResidencyTicks::UNDEFINED 564761153000                       # Cumulative time (in ticks) in various power states
system.cpu0.icache.tags.replacements          2673488                       # number of replacements
system.cpu0.icache.tags.tagsinuse          127.998744                       # Cycle average of tags in use
system.cpu0.icache.tags.total_refs           89338424                       # Total number of references to valid blocks.
system.cpu0.icache.tags.sampled_refs          2673616                       # Sample count of references to valid blocks.
system.cpu0.icache.tags.avg_refs            33.414830                       # Average number of references to valid blocks.
system.cpu0.icache.tags.warmup_cycle         18336500                       # Cycle when the warmup percentage was hit.
system.cpu0.icache.tags.occ_blocks::cpu0.inst   127.998744                       # Average occupied blocks per requestor
system.cpu0.icache.tags.occ_percent::cpu0.inst     0.999990                       # Average percentage of cache occupancy
system.cpu0.icache.tags.occ_percent::total     0.999990                       # Average percentage of cache occupancy
system.cpu0.icache.tags.occ_task_id_blocks::1024          128                       # Occupied blocks per task id
system.cpu0.icache.tags.age_task_id_blocks_1024::0          118                       # Occupied blocks per task id
system.cpu0.icache.tags.age_task_id_blocks_1024::1            6                       # Occupied blocks per task id
system.cpu0.icache.tags.age_task_id_blocks_1024::2            4                       # Occupied blocks per task id
system.cpu0.icache.tags.occ_task_id_percent::1024            1                       # Percentage of cache occupancy per task id
system.cpu0.icache.tags.tag_accesses        370803084                       # Number of tag accesses
system.cpu0.icache.tags.data_accesses       370803084                       # Number of data accesses
system.cpu0.icache.pwrStateResidencyTicks::UNDEFINED 564761153000                       # Cumulative time (in ticks) in various power states
system.cpu0.icache.ReadReq_hits::cpu0.inst     89338424                       # number of ReadReq hits
system.cpu0.icache.ReadReq_hits::total       89338424                       # number of ReadReq hits
system.cpu0.icache.demand_hits::cpu0.inst     89338424                       # number of demand (read+write) hits
system.cpu0.icache.demand_hits::total        89338424                       # number of demand (read+write) hits
system.cpu0.icache.overall_hits::cpu0.inst     89338424                       # number of overall hits
system.cpu0.icache.overall_hits::total       89338424                       # number of overall hits
system.cpu0.icache.ReadReq_misses::cpu0.inst      2693943                       # number of ReadReq misses
system.cpu0.icache.ReadReq_misses::total      2693943                       # number of ReadReq misses
system.cpu0.icache.demand_misses::cpu0.inst      2693943                       # number of demand (read+write) misses
system.cpu0.icache.demand_misses::total       2693943                       # number of demand (read+write) misses
system.cpu0.icache.overall_misses::cpu0.inst      2693943                       # number of overall misses
system.cpu0.icache.overall_misses::total      2693943                       # number of overall misses
system.cpu0.icache.ReadReq_miss_latency::cpu0.inst  40518420000                       # number of ReadReq miss cycles
system.cpu0.icache.ReadReq_miss_latency::total  40518420000                       # number of ReadReq miss cycles
system.cpu0.icache.demand_miss_latency::cpu0.inst  40518420000                       # number of demand (read+write) miss cycles
system.cpu0.icache.demand_miss_latency::total  40518420000                       # number of demand (read+write) miss cycles
system.cpu0.icache.overall_miss_latency::cpu0.inst  40518420000                       # number of overall miss cycles
system.cpu0.icache.overall_miss_latency::total  40518420000                       # number of overall miss cycles
system.cpu0.icache.ReadReq_accesses::cpu0.inst     92032367                       # number of ReadReq accesses(hits+misses)
system.cpu0.icache.ReadReq_accesses::total     92032367                       # number of ReadReq accesses(hits+misses)
system.cpu0.icache.demand_accesses::cpu0.inst     92032367                       # number of demand (read+write) accesses
system.cpu0.icache.demand_accesses::total     92032367                       # number of demand (read+write) accesses
system.cpu0.icache.overall_accesses::cpu0.inst     92032367                       # number of overall (read+write) accesses
system.cpu0.icache.overall_accesses::total     92032367                       # number of overall (read+write) accesses
system.cpu0.icache.ReadReq_miss_rate::cpu0.inst     0.029272                       # miss rate for ReadReq accesses
system.cpu0.icache.ReadReq_miss_rate::total     0.029272                       # miss rate for ReadReq accesses
system.cpu0.icache.demand_miss_rate::cpu0.inst     0.029272                       # miss rate for demand accesses
system.cpu0.icache.demand_miss_rate::total     0.029272                       # miss rate for demand accesses
system.cpu0.icache.overall_miss_rate::cpu0.inst     0.029272                       # miss rate for overall accesses
system.cpu0.icache.overall_miss_rate::total     0.029272                       # miss rate for overall accesses
system.cpu0.icache.ReadReq_avg_miss_latency::cpu0.inst 15040.563219                       # average ReadReq miss latency
system.cpu0.icache.ReadReq_avg_miss_latency::total 15040.563219                       # average ReadReq miss latency
system.cpu0.icache.demand_avg_miss_latency::cpu0.inst 15040.563219                       # average overall miss latency
system.cpu0.icache.demand_avg_miss_latency::total 15040.563219                       # average overall miss latency
system.cpu0.icache.overall_avg_miss_latency::cpu0.inst 15040.563219                       # average overall miss latency
system.cpu0.icache.overall_avg_miss_latency::total 15040.563219                       # average overall miss latency
system.cpu0.icache.blocked_cycles::no_mshrs           41                       # number of cycles access was blocked
system.cpu0.icache.blocked_cycles::no_targets            0                       # number of cycles access was blocked
system.cpu0.icache.blocked::no_mshrs                4                       # number of cycles access was blocked
system.cpu0.icache.blocked::no_targets              0                       # number of cycles access was blocked
system.cpu0.icache.avg_blocked_cycles::no_mshrs    10.250000                       # average number of cycles each access was blocked
system.cpu0.icache.avg_blocked_cycles::no_targets          nan                       # average number of cycles each access was blocked
system.cpu0.icache.writebacks::writebacks      2673488                       # number of writebacks
system.cpu0.icache.writebacks::total          2673488                       # number of writebacks
system.cpu0.icache.ReadReq_mshr_hits::cpu0.inst        20326                       # number of ReadReq MSHR hits
system.cpu0.icache.ReadReq_mshr_hits::total        20326                       # number of ReadReq MSHR hits
system.cpu0.icache.demand_mshr_hits::cpu0.inst        20326                       # number of demand (read+write) MSHR hits
system.cpu0.icache.demand_mshr_hits::total        20326                       # number of demand (read+write) MSHR hits
system.cpu0.icache.overall_mshr_hits::cpu0.inst        20326                       # number of overall MSHR hits
system.cpu0.icache.overall_mshr_hits::total        20326                       # number of overall MSHR hits
system.cpu0.icache.ReadReq_mshr_misses::cpu0.inst      2673617                       # number of ReadReq MSHR misses
system.cpu0.icache.ReadReq_mshr_misses::total      2673617                       # number of ReadReq MSHR misses
system.cpu0.icache.demand_mshr_misses::cpu0.inst      2673617                       # number of demand (read+write) MSHR misses
system.cpu0.icache.demand_mshr_misses::total      2673617                       # number of demand (read+write) MSHR misses
system.cpu0.icache.overall_mshr_misses::cpu0.inst      2673617                       # number of overall MSHR misses
system.cpu0.icache.overall_mshr_misses::total      2673617                       # number of overall MSHR misses
[...]
system.l2.demand_miss_rate::cpu0.data        0.065978                       # miss rate for demand accesses
system.l2.demand_miss_rate::total            0.002292                       # miss rate for demand accesses
system.l2.overall_miss_rate::cpu0.inst       0.000685                       # miss rate for overall accesses
system.l2.overall_miss_rate::cpu0.data       0.065978                       # miss rate for overall accesses
system.l2.overall_miss_rate::total           0.002292                       # miss rate for overall accesses
system.l2.ReadExReq_avg_miss_latency::cpu0.data 61546.204620                       # average ReadExReq miss latency
system.l2.ReadExReq_avg_miss_latency::total 61546.204620                       # average ReadExReq miss latency
system.l2.ReadCleanReq_avg_miss_latency::cpu0.inst 61186.954148                       # average ReadCleanReq miss latency
system.l2.ReadCleanReq_avg_miss_latency::total 61186.954148                       # average ReadCleanReq miss latency
system.l2.ReadSharedReq_avg_miss_latency::cpu0.data 61246.625767                       # average ReadSharedReq miss latency
system.l2.ReadSharedReq_avg_miss_latency::total 61246.625767                       # average ReadSharedReq miss latency
system.l2.demand_avg_miss_latency::cpu0.inst 61186.954148                       # average overall miss latency
system.l2.demand_avg_miss_latency::cpu0.data 61491.350258                       # average overall miss latency
system.l2.demand_avg_miss_latency::total 61402.594302                       # average overall miss latency
system.l2.overall_avg_miss_latency::cpu0.inst 61186.954148                       # average overall miss latency
system.l2.overall_avg_miss_latency::cpu0.data 61491.350258                       # average overall miss latency
system.l2.overall_avg_miss_latency::total 61402.594302                       # average overall miss latency
system.l2.blocked_cycles::no_mshrs                  0                       # number of cycles access was blocked
system.l2.blocked_cycles::no_targets                0                       # number of cycles access was blocked
system.l2.blocked::no_mshrs                         0                       # number of cycles access was blocked
system.l2.blocked::no_targets                       0                       # number of cycles access was blocked
system.l2.avg_blocked_cycles::no_mshrs            nan                       # average number of cycles each access was blocked
system.l2.avg_blocked_cycles::no_targets          nan                       # average number of cycles each access was blocked
system.l2.writebacks::writebacks                 1231                       # number of writebacks
system.l2.writebacks::total                      1231                       # number of writebacks
system.l2.ReadCleanReq_mshr_hits::cpu0.inst            5                       # number of ReadCleanReq MSHR hits
system.l2.ReadCleanReq_mshr_hits::total             5                       # number of ReadCleanReq MSHR hits
system.l2.ReadSharedReq_mshr_hits::cpu0.data           22                       # number of ReadSharedReq MSHR hits
system.l2.ReadSharedReq_mshr_hits::total           22                       # number of ReadSharedReq MSHR hits
system.l2.demand_mshr_hits::cpu0.inst               5                       # number of demand (read+write) MSHR hits
system.l2.demand_mshr_hits::cpu0.data              22                       # number of demand (read+write) MSHR hits
system.l2.demand_mshr_hits::total                  27                       # number of demand (read+write) MSHR hits
system.l2.overall_mshr_hits::cpu0.inst              5                       # number of overall MSHR hits
system.l2.overall_mshr_hits::cpu0.data             22                       # number of overall MSHR hits
system.l2.overall_mshr_hits::total                 27                       # number of overall MSHR hits
system.l2.ReadExReq_mshr_misses::cpu0.data         3636                       # number of ReadExReq MSHR misses
system.l2.ReadExReq_mshr_misses::total           3636                       # number of ReadExReq MSHR misses
system.l2.ReadCleanReq_mshr_misses::cpu0.inst         1827                       # number of ReadCleanReq MSHR misses
system.l2.ReadCleanReq_mshr_misses::total         1827                       # number of ReadCleanReq MSHR misses
system.l2.ReadSharedReq_mshr_misses::cpu0.data          793                       # number of ReadSharedReq MSHR misses
system.l2.ReadSharedReq_mshr_misses::total          793                       # number of ReadSharedReq MSHR misses
system.l2.demand_mshr_misses::cpu0.inst          1827                       # number of demand (read+write) MSHR misses
system.l2.demand_mshr_misses::cpu0.data          4429                       # number of demand (read+write) MSHR misses
system.l2.demand_mshr_misses::total              6256                       # number of demand (read+write) MSHR misses
system.l2.overall_mshr_misses::cpu0.inst         1827                       # number of overall MSHR misses
system.l2.overall_mshr_misses::cpu0.data         4429                       # number of overall MSHR misses
system.l2.overall_mshr_misses::total             6256                       # number of overall MSHR misses
system.l2.ReadExReq_mshr_miss_latency::cpu0.data    187422000                       # number of ReadExReq MSHR miss cycles
system.l2.ReadExReq_mshr_miss_latency::total    187422000                       # number of ReadExReq MSHR miss cycles
system.l2.ReadCleanReq_mshr_miss_latency::cpu0.inst     93538500                       # number of ReadCleanReq MSHR miss cycles
system.l2.ReadCleanReq_mshr_miss_latency::total     93538500                       # number of ReadCleanReq MSHR miss cycles
system.l2.ReadSharedReq_mshr_miss_latency::cpu0.data     40820000                       # number of ReadSharedReq MSHR miss cycles
system.l2.ReadSharedReq_mshr_miss_latency::total     40820000                       # number of ReadSharedReq MSHR miss cycles
system.l2.demand_mshr_miss_latency::cpu0.inst     93538500                       # number of demand (read+write) MSHR miss cycles
system.l2.demand_mshr_miss_latency::cpu0.data    228242000                       # number of demand (read+write) MSHR miss cycles
system.l2.demand_mshr_miss_latency::total    321780500                       # number of demand (read+write) MSHR miss cycles
system.l2.overall_mshr_miss_latency::cpu0.inst     93538500                       # number of overall MSHR miss cycles
system.l2.overall_mshr_miss_latency::cpu0.data    228242000                       # number of overall MSHR miss cycles
system.l2.overall_mshr_miss_latency::total    321780500                       # number of overall MSHR miss cycles
system.l2.ReadExReq_mshr_miss_rate::cpu0.data     0.127521                       # mshr miss rate for ReadExReq accesses
system.l2.ReadExReq_mshr_miss_rate::total     0.127521                       # mshr miss rate for ReadExReq accesses
system.l2.ReadCleanReq_mshr_miss_rate::cpu0.inst     0.000683                       # mshr miss rate for ReadCleanReq accesses
system.l2.ReadCleanReq_mshr_miss_rate::total     0.000683                       # mshr miss rate for ReadCleanReq accesses
system.l2.ReadSharedReq_mshr_miss_rate::cpu0.data     0.020360                       # mshr miss rate for ReadSharedReq accesses
system.l2.ReadSharedReq_mshr_miss_rate::total     0.020360                       # mshr miss rate for ReadSharedReq accesses
system.l2.demand_mshr_miss_rate::cpu0.inst     0.000683                       # mshr miss rate for demand accesses
system.l2.demand_mshr_miss_rate::cpu0.data     0.065652                       # mshr miss rate for demand accesses
system.l2.demand_mshr_miss_rate::total       0.002282                       # mshr miss rate for demand accesses
system.l2.overall_mshr_miss_rate::cpu0.inst     0.000683                       # mshr miss rate for overall accesses
system.l2.overall_mshr_miss_rate::cpu0.data     0.065652                       # mshr miss rate for overall accesses
system.l2.overall_mshr_miss_rate::total      0.002282                       # mshr miss rate for overall accesses
system.l2.ReadExReq_avg_mshr_miss_latency::cpu0.data 51546.204620                       # average ReadExReq mshr miss latency
system.l2.ReadExReq_avg_mshr_miss_latency::total 51546.204620                       # average ReadExReq mshr miss latency
system.l2.ReadCleanReq_avg_mshr_miss_latency::cpu0.inst 51197.865353                       # average ReadCleanReq mshr miss latency
system.l2.ReadCleanReq_avg_mshr_miss_latency::total 51197.865353                       # average ReadCleanReq mshr miss latency
system.l2.ReadSharedReq_avg_mshr_miss_latency::cpu0.data 51475.409836                       # average ReadSharedReq mshr miss latency
system.l2.ReadSharedReq_avg_mshr_miss_latency::total 51475.409836                       # average ReadSharedReq mshr miss latency
system.l2.demand_avg_mshr_miss_latency::cpu0.inst 51197.865353                       # average overall mshr miss latency
system.l2.demand_avg_mshr_miss_latency::cpu0.data 51533.529013                       # average overall mshr miss latency
system.l2.demand_avg_mshr_miss_latency::total 51435.501918                       # average overall mshr miss latency
system.l2.overall_avg_mshr_miss_latency::cpu0.inst 51197.865353                       # average overall mshr miss latency
system.l2.overall_avg_mshr_miss_latency::cpu0.data 51533.529013                       # average overall mshr miss latency
system.l2.overall_avg_mshr_miss_latency::total 51435.501918                       # average overall mshr miss latency
system.membus.snoop_filter.tot_requests          9213                       # Total number of requests made to the snoop filter.
system.membus.snoop_filter.hit_single_requests         2200                       # Number of requests hitting in the snoop filter with a single holder of the requested data.
system.membus.snoop_filter.hit_multi_requests            0                       # Number of requests hitting in the snoop filter with multiple (>1) holders of the requested data.
system.membus.snoop_filter.tot_snoops               0                       # Total number of snoops made to the snoop filter.
system.membus.snoop_filter.hit_single_snoops            0                       # Number of snoops hitting in the snoop filter with a single holder of the requested data.
system.membus.snoop_filter.hit_multi_snoops            0                       # Number of snoops hitting in the snoop filter with multiple (>1) holders of the requested data.
system.membus.pwrStateResidencyTicks::UNDEFINED 564761153000                       # Cumulative time (in ticks) in various power states
system.membus.trans_dist::ReadResp               2620                       # Transaction distribution
system.membus.trans_dist::WritebackDirty         1231                       # Transaction distribution
system.membus.trans_dist::CleanEvict              929                       # Transaction distribution
system.membus.trans_dist::ReadExReq              3636                       # Transaction distribution
system.membus.trans_dist::ReadExResp             3636                       # Transaction distribution
system.membus.trans_dist::ReadSharedReq          2620                       # Transaction distribution
system.membus.pkt_count_system.l2.mem_side::system.physmem.port        14672                       # Packet count per connected master and slave (bytes)
system.membus.pkt_count::total                  14672                       # Packet count per connected master and slave (bytes)
system.membus.pkt_size_system.l2.mem_side::system.physmem.port       479168                       # Cumulative packet size per connected master and slave (bytes)
system.membus.pkt_size::total                  479168                       # Cumulative packet size per connected master and slave (bytes)
system.membus.snoops                                0                       # Total snoops (count)
system.membus.snoopTraffic                          0                       # Total snoop traffic (bytes)
system.membus.snoop_fanout::samples              7013                       # Request fanout histogram
system.membus.snoop_fanout::mean                    0                       # Request fanout histogram
system.membus.snoop_fanout::stdev                   0                       # Request fanout histogram
system.membus.snoop_fanout::underflows              0      0.00%      0.00% # Request fanout histogram
system.membus.snoop_fanout::0                    7013    100.00%    100.00% # Request fanout histogram
system.membus.snoop_fanout::1                       0      0.00%    100.00% # Request fanout histogram
system.membus.snoop_fanout::overflows               0      0.00%    100.00% # Request fanout histogram
system.membus.snoop_fanout::min_value               0                       # Request fanout histogram
system.membus.snoop_fanout::max_value               0                       # Request fanout histogram
system.membus.snoop_fanout::total                7013                       # Request fanout histogram
system.membus.reqLayer0.occupancy            17249952                       # Layer occupancy (ticks)
system.membus.reqLayer0.utilization               0.0                       # Layer utilization (%)
system.membus.respLayer1.occupancy           31280000                       # Layer occupancy (ticks)
system.membus.respLayer1.utilization              0.0                       # Layer utilization (%)
system.tol2bus.snoop_filter.tot_requests      5481901                       # Total number of requests made to the snoop filter.
system.tol2bus.snoop_filter.hit_single_requests      2740835                       # Number of requests hitting in the snoop filter with a single holder of the requested data.
system.tol2bus.snoop_filter.hit_multi_requests        79150                       # Number of requests hitting in the snoop filter with multiple (>1) holders of the requested data.
system.tol2bus.snoop_filter.tot_snoops              0                       # Total number of snoops made to the snoop filter.
system.tol2bus.snoop_filter.hit_single_snoops            0                       # Number of snoops hitting in the snoop filter with a single holder of the requested data.
system.tol2bus.snoop_filter.hit_multi_snoops            0                       # Number of snoops hitting in the snoop filter with multiple (>1) holders of the requested data.
system.tol2bus.pwrStateResidencyTicks::UNDEFINED 564761153000                       # Cumulative time (in ticks) in various power states
system.tol2bus.trans_dist::ReadResp           2712565                       # Transaction distribution
system.tol2bus.trans_dist::WritebackDirty        46517                       # Transaction distribution
system.tol2bus.trans_dist::WritebackClean      2673488                       # Transaction distribution
system.tol2bus.trans_dist::CleanEvict           22977                       # Transaction distribution
system.tol2bus.trans_dist::ReadExReq            28513                       # Transaction distribution
system.tol2bus.trans_dist::ReadExResp           28513                       # Transaction distribution
system.tol2bus.trans_dist::ReadCleanReq       2673617                       # Transaction distribution
system.tol2bus.trans_dist::ReadSharedReq        38949                       # Transaction distribution
system.tol2bus.pkt_count_system.cpu0.icache.mem_side::system.l2.cpu_side      8020721                       # Packet count per connected master and slave (bytes)
system.tol2bus.pkt_count_system.cpu0.dcache.mem_side::system.l2.cpu_side       202258                       # Packet count per connected master and slave (bytes)
system.tol2bus.pkt_count::total               8222979                       # Packet count per connected master and slave (bytes)
system.tol2bus.pkt_size_system.cpu0.icache.mem_side::system.l2.cpu_side    342214656                       # Cumulative packet size per connected master and slave (bytes)
system.tol2bus.pkt_size_system.cpu0.dcache.mem_side::system.l2.cpu_side      7215872                       # Cumulative packet size per connected master and slave (bytes)
system.tol2bus.pkt_size::total              349430528                       # Cumulative packet size per connected master and slave (bytes)
system.tol2bus.snoops                            2160                       # Total snoops (count)
system.tol2bus.snoopTraffic                     78784                       # Total snoop traffic (bytes)
system.tol2bus.snoop_fanout::samples          2743239                       # Request fanout histogram
system.tol2bus.snoop_fanout::mean            0.028857                       # Request fanout histogram
system.tol2bus.snoop_fanout::stdev           0.167406                       # Request fanout histogram
system.tol2bus.snoop_fanout::underflows             0      0.00%      0.00% # Request fanout histogram
system.tol2bus.snoop_fanout::0                2664076     97.11%     97.11% # Request fanout histogram
system.tol2bus.snoop_fanout::1                  79163      2.89%    100.00% # Request fanout histogram
system.tol2bus.snoop_fanout::2                      0      0.00%    100.00% # Request fanout histogram
system.tol2bus.snoop_fanout::3                      0      0.00%    100.00% # Request fanout histogram
system.tol2bus.snoop_fanout::4                      0      0.00%    100.00% # Request fanout histogram
system.tol2bus.snoop_fanout::5                      0      0.00%    100.00% # Request fanout histogram
system.tol2bus.snoop_fanout::6                      0      0.00%    100.00% # Request fanout histogram
system.tol2bus.snoop_fanout::7                      0      0.00%    100.00% # Request fanout histogram
system.tol2bus.snoop_fanout::8                      0      0.00%    100.00% # Request fanout histogram
system.tol2bus.snoop_fanout::9                      0      0.00%    100.00% # Request fanout histogram
system.tol2bus.snoop_fanout::10                     0      0.00%    100.00% # Request fanout histogram
system.tol2bus.snoop_fanout::11                     0      0.00%    100.00% # Request fanout histogram
system.tol2bus.snoop_fanout::12                     0      0.00%    100.00% # Request fanout histogram
system.tol2bus.snoop_fanout::13                     0      0.00%    100.00% # Request fanout histogram
system.tol2bus.snoop_fanout::14                     0      0.00%    100.00% # Request fanout histogram
system.tol2bus.snoop_fanout::15                     0      0.00%    100.00% # Request fanout histogram
system.tol2bus.snoop_fanout::16                     0      0.00%    100.00% # Request fanout histogram
system.tol2bus.snoop_fanout::overflows              0      0.00%    100.00% # Request fanout histogram
system.tol2bus.snoop_fanout::min_value              0                       # Request fanout histogram
system.tol2bus.snoop_fanout::max_value              1                       # Request fanout histogram
system.tol2bus.snoop_fanout::total            2743239                       # Request fanout histogram
system.tol2bus.reqLayer0.occupancy         5459724500                       # Layer occupancy (ticks)
system.tol2bus.reqLayer0.utilization              1.0                       # Layer utilization (%)
system.tol2bus.respLayer0.occupancy        4010591664                       # Layer occupancy (ticks)
system.tol2bus.respLayer0.utilization             0.7                       # Layer utilization (%)
system.tol2bus.respLayer1.occupancy         101232920                       # Layer occupancy (ticks)
system.tol2bus.respLayer1.utilization             0.0                       # Layer utilization (%)

---------- End Simulation Statistics   ----------
