
---------- Begin Simulation Statistics ----------
sim_seconds                                  0.130872                       # Number of seconds simulated
sim_ticks                                130872122000                       # Number of ticks simulated
final_tick                               130872122000                       # Number of ticks from beginning of simulation (restored from checkpoints and never reset)
sim_freq                                 1000000000000                       # Frequency of simulated ticks
host_inst_rate                                 252633                       # Simulator instruction rate (inst/s)
host_op_rate                                   278214                       # Simulator op (including micro ops) rate (op/s)
host_tick_rate                               44203174                       # Simulator tick rate (ticks/s)
host_mem_usage                                 721296                       # Number of bytes of host memory used
host_seconds                                  2960.70                       # Real time elapsed on the host
sim_insts                                   747970603                       # Number of instructions simulated
sim_ops                                     823705535                       # Number of ops (including micro ops) simulated
system.voltage_domain.voltage                       1                       # Voltage in Volts
system.clk_domain.clock                          1000                       # Clock period in ticks
system.physmem.pwrStateResidencyTicks::UNDEFINED 130872122000                       # Cumulative time (in ticks) in various power states
system.physmem.bytes_read::cpu0.inst         75757312                       # Number of bytes read from this memory
system.physmem.bytes_read::cpu0.data         10715328                       # Number of bytes read from this memory
system.physmem.bytes_read::cpu1.inst         19343616                       # Number of bytes read from this memory
system.physmem.bytes_read::cpu1.data          1966208                       # Number of bytes read from this memory
system.physmem.bytes_read::cpu2.inst         19260736                       # Number of bytes read from this memory
system.physmem.bytes_read::cpu2.data          2195072                       # Number of bytes read from this memory
system.physmem.bytes_read::cpu3.inst         19059712                       # Number of bytes read from this memory
system.physmem.bytes_read::cpu3.data          6579136                       # Number of bytes read from this memory
system.physmem.bytes_read::cpu4.inst         23365824                       # Number of bytes read from this memory
system.physmem.bytes_read::cpu4.data         14579392                       # Number of bytes read from this memory
system.physmem.bytes_read::cpu5.inst         24534336                       # Number of bytes read from this memory
system.physmem.bytes_read::cpu5.data          2048704                       # Number of bytes read from this memory
system.physmem.bytes_read::cpu6.inst         24656064                       # Number of bytes read from this memory
system.physmem.bytes_read::cpu6.data          2285376                       # Number of bytes read from this memory
system.physmem.bytes_read::cpu7.inst         23384640                       # Number of bytes read from this memory
system.physmem.bytes_read::cpu7.data          1317632                       # Number of bytes read from this memory
system.physmem.bytes_read::total            271049088                       # Number of bytes read from this memory
system.physmem.bytes_inst_read::cpu0.inst     75757312                       # Number of instructions bytes read from this memory
system.physmem.bytes_inst_read::cpu1.inst     19343616                       # Number of instructions bytes read from this memory
system.physmem.bytes_inst_read::cpu2.inst     19260736                       # Number of instructions bytes read from this memory
system.physmem.bytes_inst_read::cpu3.inst     19059712                       # Number of instructions bytes read from this memory
system.physmem.bytes_inst_read::cpu4.inst     23365824                       # Number of instructions bytes read from this memory
system.physmem.bytes_inst_read::cpu5.inst     24534336                       # Number of instructions bytes read from this memory
system.physmem.bytes_inst_read::cpu6.inst     24656064                       # Number of instructions bytes read from this memory
system.physmem.bytes_inst_read::cpu7.inst     23384640                       # Number of instructions bytes read from this memory
system.physmem.bytes_inst_read::total       229362240                       # Number of instructions bytes read from this memory
system.physmem.bytes_written::writebacks     18676864                       # Number of bytes written to this memory
system.physmem.bytes_written::total          18676864                       # Number of bytes written to this memory
system.physmem.num_reads::cpu0.inst           1183708                       # Number of read requests responded to by this memory
system.physmem.num_reads::cpu0.data            167427                       # Number of read requests responded to by this memory
system.physmem.num_reads::cpu1.inst            302244                       # Number of read requests responded to by this memory
system.physmem.num_reads::cpu1.data             30722                       # Number of read requests responded to by this memory
system.physmem.num_reads::cpu2.inst            300949                       # Number of read requests responded to by this memory
system.physmem.num_reads::cpu2.data             34298                       # Number of read requests responded to by this memory
system.physmem.num_reads::cpu3.inst            297808                       # Number of read requests responded to by this memory
system.physmem.num_reads::cpu3.data            102799                       # Number of read requests responded to by this memory
system.physmem.num_reads::cpu4.inst            365091                       # Number of read requests responded to by this memory
system.physmem.num_reads::cpu4.data            227803                       # Number of read requests responded to by this memory
system.physmem.num_reads::cpu5.inst            383349                       # Number of read requests responded to by this memory
system.physmem.num_reads::cpu5.data             32011                       # Number of read requests responded to by this memory
system.physmem.num_reads::cpu6.inst            385251                       # Number of read requests responded to by this memory
system.physmem.num_reads::cpu6.data             35709                       # Number of read requests responded to by this memory
system.physmem.num_reads::cpu7.inst            365385                       # Number of read requests responded to by this memory
system.physmem.num_reads::cpu7.data             20588                       # Number of read requests responded to by this memory
system.physmem.num_reads::total               4235142                       # Number of read requests responded to by this memory
system.physmem.num_writes::writebacks          291826                       # Number of write requests responded to by this memory
system.physmem.num_writes::total               291826                       # Number of write requests responded to by this memory
system.physmem.bw_read::cpu0.inst           578865161                       # Total read bandwidth from this memory (bytes/s)
system.physmem.bw_read::cpu0.data            81876322                       # Total read bandwidth from this memory (bytes/s)
system.physmem.bw_read::cpu1.inst           147805474                       # Total read bandwidth from this memory (bytes/s)
system.physmem.bw_read::cpu1.data            15023887                       # Total read bandwidth from this memory (bytes/s)
system.physmem.bw_read::cpu2.inst           147172184                       # Total read bandwidth from this memory (bytes/s)
system.physmem.bw_read::cpu2.data            16772648                       # Total read bandwidth from this memory (bytes/s)
system.physmem.bw_read::cpu3.inst           145636150                       # Total read bandwidth from this memory (bytes/s)
system.physmem.bw_read::cpu3.data            50271486                       # Total read bandwidth from this memory (bytes/s)
system.physmem.bw_read::cpu4.inst           178539353                       # Total read bandwidth from this memory (bytes/s)
system.physmem.bw_read::cpu4.data           111401816                       # Total read bandwidth from this memory (bytes/s)
system.physmem.bw_read::cpu5.inst           187468008                       # Total read bandwidth from this memory (bytes/s)
system.physmem.bw_read::cpu5.data            15654243                       # Total read bandwidth from this memory (bytes/s)
system.physmem.bw_read::cpu6.inst           188398137                       # Total read bandwidth from this memory (bytes/s)
system.physmem.bw_read::cpu6.data            17462665                       # Total read bandwidth from this memory (bytes/s)
system.physmem.bw_read::cpu7.inst           178683127                       # Total read bandwidth from this memory (bytes/s)
system.physmem.bw_read::cpu7.data            10068088                       # Total read bandwidth from this memory (bytes/s)
system.physmem.bw_read::total              2071098748                       # Total read bandwidth from this memory (bytes/s)
system.physmem.bw_inst_read::cpu0.inst      578865161                       # Instruction read bandwidth from this memory (bytes/s)
system.physmem.bw_inst_read::cpu1.inst      147805474                       # Instruction read bandwidth from this memory (bytes/s)
system.physmem.bw_inst_read::cpu2.inst      147172184                       # Instruction read bandwidth from this memory (bytes/s)
system.physmem.bw_inst_read::cpu3.inst      145636150                       # Instruction read bandwidth from this memory (bytes/s)
system.physmem.bw_inst_read::cpu4.inst      178539353                       # Instruction read bandwidth from this memory (bytes/s)
system.physmem.bw_inst_read::cpu5.inst      187468008                       # Instruction read bandwidth from this memory (bytes/s)
system.physmem.bw_inst_read::cpu6.inst      188398137                       # Instruction read bandwidth from this memory (bytes/s)
system.physmem.bw_inst_read::cpu7.inst      178683127                       # Instruction read bandwidth from this memory (bytes/s)
system.physmem.bw_inst_read::total         1752567594                       # Instruction read bandwidth from this memory (bytes/s)
system.physmem.bw_write::writebacks         142710791                       # Write bandwidth from this memory (bytes/s)
system.physmem.bw_write::total              142710791                       # Write bandwidth from this memory (bytes/s)
system.physmem.bw_total::writebacks         142710791                       # Total bandwidth to/from this memory (bytes/s)
system.physmem.bw_total::cpu0.inst          578865161                       # Total bandwidth to/from this memory (bytes/s)
system.physmem.bw_total::cpu0.data           81876322                       # Total bandwidth to/from this memory (bytes/s)
system.physmem.bw_total::cpu1.inst          147805474                       # Total bandwidth to/from this memory (bytes/s)
system.physmem.bw_total::cpu1.data           15023887                       # Total bandwidth to/from this memory (bytes/s)
system.physmem.bw_total::cpu2.inst          147172184                       # Total bandwidth to/from this memory (bytes/s)
system.physmem.bw_total::cpu2.data           16772648                       # Total bandwidth to/from this memory (bytes/s)
system.physmem.bw_total::cpu3.inst          145636150                       # Total bandwidth to/from this memory (bytes/s)
system.physmem.bw_total::cpu3.data           50271486                       # Total bandwidth to/from this memory (bytes/s)
system.physmem.bw_total::cpu4.inst          178539353                       # Total bandwidth to/from this memory (bytes/s)
system.physmem.bw_total::cpu4.data          111401816                       # Total bandwidth to/from this memory (bytes/s)
system.physmem.bw_total::cpu5.inst          187468008                       # Total bandwidth to/from this memory (bytes/s)
system.physmem.bw_total::cpu5.data           15654243                       # Total bandwidth to/from this memory (bytes/s)
system.physmem.bw_total::cpu6.inst          188398137                       # Total bandwidth to/from this memory (bytes/s)
system.physmem.bw_total::cpu6.data           17462665                       # Total bandwidth to/from this memory (bytes/s)
system.physmem.bw_total::cpu7.inst          178683127                       # Total bandwidth to/from this memory (bytes/s)
system.physmem.bw_total::cpu7.data           10068088                       # Total bandwidth to/from this memory (bytes/s)
system.physmem.bw_total::total             2213809538                       # Total bandwidth to/from this memory (bytes/s)
system.pwrStateResidencyTicks::UNDEFINED 130872122000                       # Cumulative time (in ticks) in various power states
system.cpu0.branchPred.lookups               18281110                       # Number of BP lookups
system.cpu0.branchPred.condPredicted         11290665                       # Number of conditional branches predicted
system.cpu0.branchPred.condIncorrect           435502                       # Number of conditional branches incorrect
system.cpu0.branchPred.BTBLookups             9849913                       # Number of BTB lookups
system.cpu0.branchPred.BTBHits                8678159                       # Number of BTB hits
system.cpu0.branchPred.BTBCorrect                   0                       # Number of correct BTB predictions (this stat may not work properly.
system.cpu0.branchPred.BTBHitPct            88.103915                       # BTB Hit Percentage
system.cpu0.branchPred.usedRAS                2245435                       # Number of times the RAS was used to get a target.
system.cpu0.branchPred.RASInCorrect             40411                       # Number of incorrect RAS predictions.
system.cpu0.branchPred.indirectLookups         560533                       # Number of indirect predictor lookups.
system.cpu0.branchPred.indirectHits            557930                       # Number of indirect target hits.
system.cpu0.branchPred.indirectMisses            2603                       # Number of indirect misses.
system.cpu0.branchPredindirectMispredicted         9666                       # Number of mispredicted indirect branches.
system.cpu0.dstage2_mmu.stage2_tlb.walker.pwrStateResidencyTicks::UNDEFINED 130872122000                       # Cumulative time (in ticks) in various power states
system.cpu0.dstage2_mmu.stage2_tlb.walker.walks            0                       # Table walker walks requested
system.cpu0.dstage2_mmu.stage2_tlb.walker.walkRequestOrigin_Requested::Data            0                       # Table walker requests started/completed, data/inst
system.cpu0.dstage2_mmu.stage2_tlb.walker.walkRequestOrigin_Requested::Inst            0                       # Table walker requests started/completed, data/inst
system.cpu0.dstage2_mmu.stage2_tlb.walker.walkRequestOrigin_Requested::total            0                       # Table walker requests started/completed, data/inst
system.cpu0.dstage2_mmu.stage2_tlb.walker.walkRequestOrigin_Completed::Data            0                       # Table walker requests started/completed, data/inst
system.cpu0.dstage2_mmu.stage2_tlb.walker.walkRequestOrigin_Completed::Inst            0                       # Table walker requests started/completed, data/inst
system.cpu0.dstage2_mmu.stage2_tlb.walker.walkRequestOrigin_Completed::total            0                       # Table walker requests started/completed, data/inst
system.cpu0.dstage2_mmu.stage2_tlb.walker.walkRequestOrigin::total            0                       # Table walker requests started/completed, data/inst
system.cpu0.dstage2_mmu.stage2_tlb.inst_hits            0                       # ITB inst hits
system.cpu0.dstage2_mmu.stage2_tlb.inst_misses            0                       # ITB inst misses
system.cpu0.dstage2_mmu.stage2_tlb.read_hits            0                       # DTB read hits
system.cpu0.dstage2_mmu.stage2_tlb.read_misses            0                       # DTB read misses
system.cpu0.dstage2_mmu.stage2_tlb.write_hits            0                       # DTB write hits
system.cpu0.dstage2_mmu.stage2_tlb.write_misses            0                       # DTB write misses
system.cpu0.dstage2_mmu.stage2_tlb.flush_tlb            0                       # Number of times complete TLB was flushed
system.cpu0.dstage2_mmu.stage2_tlb.flush_tlb_mva            0                       # Number of times TLB was flushed by MVA
system.cpu0.dstage2_mmu.stage2_tlb.flush_tlb_mva_asid            0                       # Number of times TLB was flushed by MVA & ASID
system.cpu0.dstage2_mmu.stage2_tlb.flush_tlb_asid            0                       # Number of times TLB was flushed by ASID
system.cpu0.dstage2_mmu.stage2_tlb.flush_entries            0                       # Number of entries that have been flushed from TLB
system.cpu0.dstage2_mmu.stage2_tlb.align_faults            0                       # Number of TLB faults due to alignment restrictions
system.cpu0.dstage2_mmu.stage2_tlb.prefetch_faults            0                       # Number of TLB faults due to prefetch
system.cpu0.dstage2_mmu.stage2_tlb.domain_faults            0                       # Number of TLB faults due to domain restrictions
system.cpu0.dstage2_mmu.stage2_tlb.perms_faults            0                       # Number of TLB faults due to permissions restrictions
system.cpu0.dstage2_mmu.stage2_tlb.read_accesses            0                       # DTB read accesses
system.cpu0.dstage2_mmu.stage2_tlb.write_accesses            0                       # DTB write accesses
system.cpu0.dstage2_mmu.stage2_tlb.inst_accesses            0                       # ITB inst accesses
system.cpu0.dstage2_mmu.stage2_tlb.hits             0                       # DTB hits
system.cpu0.dstage2_mmu.stage2_tlb.misses            0                       # DTB misses
system.cpu0.dstage2_mmu.stage2_tlb.accesses            0                       # DTB accesses
system.cpu0.dtb.walker.pwrStateResidencyTicks::UNDEFINED 130872122000                       # Cumulative time (in ticks) in various power states
system.cpu0.dtb.walker.walks                        0                       # Table walker walks requested
system.cpu0.dtb.walker.walkRequestOrigin_Requested::Data            0                       # Table walker requests started/completed, data/inst
system.cpu0.dtb.walker.walkRequestOrigin_Requested::Inst            0                       # Table walker requests started/completed, data/inst
system.cpu0.dtb.walker.walkRequestOrigin_Requested::total            0                       # Table walker requests started/completed, data/inst
system.cpu0.dtb.walker.walkRequestOrigin_Completed::Data            0                       # Table walker requests started/completed, data/inst
system.cpu0.dtb.walker.walkRequestOrigin_Completed::Inst            0                       # Table walker requests started/completed, data/inst
system.cpu0.dtb.walker.walkRequestOrigin_Completed::total            0                       # Table walker requests started/completed, data/inst
system.cpu0.dtb.walker.walkRequestOrigin::total            0                       # Table walker requests started/completed, data/inst
system.cpu0.dtb.inst_hits                           0                       # ITB inst hits
system.cpu0.dtb.inst_misses                         0                       # ITB inst misses
system.cpu0.dtb.read_hits                           0                       # DTB read hits
system.cpu0.dtb.read_misses                         0                       # DTB read misses
system.cpu0.dtb.write_hits                          0                       # DTB write hits
system.cpu0.dtb.write_misses                        0                       # DTB write misses
system.cpu0.dtb.flush_tlb                           0                       # Number of times complete TLB was flushed
system.cpu0.dtb.flush_tlb_mva                       0                       # Number of times TLB was flushed by MVA
system.cpu0.dtb.flush_tlb_mva_asid                  0                       # Number of times TLB was flushed by MVA & ASID
system.cpu0.dtb.flush_tlb_asid                      0                       # Number of times TLB was flushed by ASID
system.cpu0.dtb.flush_entries                       0                       # Number of entries that have been flushed from TLB
system.cpu0.dtb.align_faults                        0                       # Number of TLB faults due to alignment restrictions
system.cpu0.dtb.prefetch_faults                     0                       # Number of TLB faults due to prefetch
system.cpu0.dtb.domain_faults                       0                       # Number of TLB faults due to domain restrictions
system.cpu0.dtb.perms_faults                        0                       # Number of TLB faults due to permissions restrictions
system.cpu0.dtb.read_accesses                       0                       # DTB read accesses
system.cpu0.dtb.write_accesses                      0                       # DTB write accesses
system.cpu0.dtb.inst_accesses                       0                       # ITB inst accesses
system.cpu0.dtb.hits                                0                       # DTB hits
system.cpu0.dtb.misses                              0                       # DTB misses
system.cpu0.dtb.accesses                            0                       # DTB accesses
system.cpu0.istage2_mmu.stage2_tlb.walker.pwrStateResidencyTicks::UNDEFINED 130872122000                       # Cumulative time (in ticks) in various power states
system.cpu0.istage2_mmu.stage2_tlb.walker.walks            0                       # Table walker walks requested
system.cpu0.istage2_mmu.stage2_tlb.walker.walkRequestOrigin_Requested::Data            0                       # Table walker requests started/completed, data/inst
system.cpu0.istage2_mmu.stage2_tlb.walker.walkRequestOrigin_Requested::Inst            0                       # Table walker requests started/completed, data/inst
system.cpu0.istage2_mmu.stage2_tlb.walker.walkRequestOrigin_Requested::total            0                       # Table walker requests started/completed, data/inst
system.cpu0.istage2_mmu.stage2_tlb.walker.walkRequestOrigin_Completed::Data            0                       # Table walker requests started/completed, data/inst
system.cpu0.istage2_mmu.stage2_tlb.walker.walkRequestOrigin_Completed::Inst            0                       # Table walker requests started/completed, data/inst
system.cpu0.istage2_mmu.stage2_tlb.walker.walkRequestOrigin_Completed::total            0                       # Table walker requests started/completed, data/inst
system.cpu0.istage2_mmu.stage2_tlb.walker.walkRequestOrigin::total            0                       # Table walker requests started/completed, data/inst
system.cpu0.istage2_mmu.stage2_tlb.inst_hits            0                       # ITB inst hits
system.cpu0.istage2_mmu.stage2_tlb.inst_misses            0                       # ITB inst misses
system.cpu0.istage2_mmu.stage2_tlb.read_hits            0                       # DTB read hits
system.cpu0.istage2_mmu.stage2_tlb.read_misses            0                       # DTB read misses
system.cpu0.istage2_mmu.stage2_tlb.write_hits            0                       # DTB write hits
system.cpu0.istage2_mmu.stage2_tlb.write_misses            0                       # DTB write misses
system.cpu0.istage2_mmu.stage2_tlb.flush_tlb            0                       # Number of times complete TLB was flushed
system.cpu0.istage2_mmu.stage2_tlb.flush_tlb_mva            0                       # Number of times TLB was flushed by MVA
system.cpu0.istage2_mmu.stage2_tlb.flush_tlb_mva_asid            0                       # Number of times TLB was flushed by MVA & ASID
system.cpu0.istage2_mmu.stage2_tlb.flush_tlb_asid            0                       # Number of times TLB was flushed by ASID
system.cpu0.istage2_mmu.stage2_tlb.flush_entries            0                       # Number of entries that have been flushed from TLB
system.cpu0.istage2_mmu.stage2_tlb.align_faults            0                       # Number of TLB faults due to alignment restrictions
system.cpu0.istage2_mmu.stage2_tlb.prefetch_faults            0                       # Number of TLB faults due to prefetch
system.cpu0.istage2_mmu.stage2_tlb.domain_faults            0                       # Number of TLB faults due to domain restrictions
system.cpu0.istage2_mmu.stage2_tlb.perms_faults            0                       # Number of TLB faults due to permissions restrictions
system.cpu0.istage2_mmu.stage2_tlb.read_accesses            0                       # DTB read accesses
system.cpu0.istage2_mmu.stage2_tlb.write_accesses            0                       # DTB write accesses
system.cpu0.istage2_mmu.stage2_tlb.inst_accesses            0                       # ITB inst accesses
system.cpu0.istage2_mmu.stage2_tlb.hits             0                       # DTB hits
system.cpu0.istage2_mmu.stage2_tlb.misses            0                       # DTB misses
system.cpu0.istage2_mmu.stage2_tlb.accesses            0                       # DTB accesses
system.cpu0.itb.walker.pwrStateResidencyTicks::UNDEFINED 130872122000                       # Cumulative time (in ticks) in various power states
system.cpu0.itb.walker.walks                        0                       # Table walker walks requested
system.cpu0.itb.walker.walkRequestOrigin_Requested::Data            0                       # Table walker requests started/completed, data/inst
system.cpu0.itb.walker.walkRequestOrigin_Requested::Inst            0                       # Table walker requests started/completed, data/inst
system.cpu0.itb.walker.walkRequestOrigin_Requested::total            0                       # Table walker requests started/completed, data/inst
system.cpu0.itb.walker.walkRequestOrigin_Completed::Data            0                       # Table walker requests started/completed, data/inst
system.cpu0.itb.walker.walkRequestOrigin_Completed::Inst            0                       # Table walker requests started/completed, data/inst
system.cpu0.itb.walker.walkRequestOrigin_Completed::total            0                       # Table walker requests started/completed, data/inst
system.cpu0.itb.walker.walkRequestOrigin::total            0                       # Table walker requests started/completed, data/inst
system.cpu0.itb.inst_hits                           0                       # ITB inst hits
system.cpu0.itb.inst_misses                         0                       # ITB inst misses
system.cpu0.itb.read_hits                           0                       # DTB read hits
system.cpu0.itb.read_misses                         0                       # DTB read misses
system.cpu0.itb.write_hits                          0                       # DTB write hits
system.cpu0.itb.write_misses                        0                       # DTB write misses
system.cpu0.itb.flush_tlb                           0                       # Number of times complete TLB was flushed
system.cpu0.itb.flush_tlb_mva                       0                       # Number of times TLB was flushed by MVA
system.cpu0.itb.flush_tlb_mva_asid                  0                       # Number of times TLB was flushed by MVA & ASID
system.cpu0.itb.flush_tlb_asid                      0                       # Number of times TLB was flushed by ASID
system.cpu0.itb.flush_entries                       0                       # Number of entries that have been flushed from TLB
system.cpu0.itb.align_faults                        0                       # Number of TLB faults due to alignment restrictions
system.cpu0.itb.prefetch_faults                     0                       # Number of TLB faults due to prefetch
system.cpu0.itb.domain_faults                       0                       # Number of TLB faults due to domain restrictions
system.cpu0.itb.perms_faults                        0                       # Number of TLB faults due to permissions restrictions
system.cpu0.itb.read_accesses                       0                       # DTB read accesses
system.cpu0.itb.write_accesses                      0                       # DTB write accesses
system.cpu0.itb.inst_accesses                       0                       # ITB inst accesses
system.cpu0.itb.hits                                0                       # DTB hits
system.cpu0.itb.misses                              0                       # DTB misses
system.cpu0.itb.accesses                            0                       # DTB accesses
system.cpu0.workload.num_syscalls              224411                       # Number of system calls
system.cpu0.pwrStateResidencyTicks::ON   130872122000                       # Cumulative time (in ticks) in various power states
system.cpu0.numCycles                       130872123                       # number of cpu cycles simulated
system.cpu0.numWorkItemsStarted                     0                       # number of work items this cpu started
system.cpu0.numWorkItemsCompleted                   0                       # number of work items this cpu completed
system.cpu0.fetch.icacheStallCycles          41924599                       # Number of cycles fetch is stalled on an Icache miss
system.cpu0.fetch.Insts                     101932147                       # Number of instructions fetch has processed
system.cpu0.fetch.Branches                   18281110                       # Number of branches that fetch encountered
system.cpu0.fetch.predictedBranches          11481524                       # Number of branches that fetch has predicted taken
system.cpu0.fetch.Cycles                     66882587                       # Number of cycles fetch has run and was not squashing or blocked
system.cpu0.fetch.SquashCycles                 880397                       # Number of cycles fetch has spent squashing
system.cpu0.fetch.MiscStallCycles                 149                       # Number of cycles fetch has spent waiting on interrupts, or bad addresses, or out of MSHRs
system.cpu0.fetch.PendingTrapStallCycles          959                       # Number of stall cycles due to pending traps
system.cpu0.fetch.IcacheWaitRetryStallCycles           78                       # Number of stall cycles due to full MSHR
system.cpu0.fetch.CacheLines                 14037482                       # Number of cache lines fetched
system.cpu0.fetch.IcacheSquashes               152078                       # Number of outstanding Icache misses that were squashed
system.cpu0.fetch.rateDist::samples         109248570                       # Number of instructions fetched each cycle (Total)
system.cpu0.fetch.rateDist::mean             1.052033                       # Number of instructions fetched each cycle (Total)
system.cpu0.fetch.rateDist::stdev            0.954084                       # Number of instructions fetched each cycle (Total)
system.cpu0.fetch.rateDist::underflows              0      0.00%      0.00% # Number of instructions fetched each cycle (Total)
system.cpu0.fetch.rateDist::0                47028858     43.05%     43.05% # Number of instructions fetched each cycle (Total)
system.cpu0.fetch.rateDist::1                 9506333      8.70%     51.75% # Number of instructions fetched each cycle (Total)
system.cpu0.fetch.rateDist::2                52713379     48.25%    100.00% # Number of instructions fetched each cycle (Total)
system.cpu0.fetch.rateDist::overflows               0      0.00%    100.00% # Number of instructions fetched each cycle (Total)
system.cpu0.fetch.rateDist::min_value               0                       # Number of instructions fetched each cycle (Total)
system.cpu0.fetch.rateDist::max_value               2                       # Number of instructions fetched each cycle (Total)
system.cpu0.fetch.rateDist::total           109248570                       # Number of instructions fetched each cycle (Total)
system.cpu0.fetch.branchRate                 0.139687                       # Number of branch fetches per cycle
system.cpu0.fetch.rate                       0.778868                       # Number of inst fetches per cycle
system.cpu0.decode.IdleCycles                39237525                       # Number of cycles decode is idle
system.cpu0.decode.BlockedCycles             11040056                       # Number of cycles decode is blocked
system.cpu0.decode.RunCycles                 47425890                       # Number of cycles decode is running
system.cpu0.decode.UnblockCycles             11139255                       # Number of cycles decode is unblocking
system.cpu0.decode.SquashCycles                405844                       # Number of cycles decode is squashing
system.cpu0.decode.BranchResolved             4845627                       # Number of times decode resolved a branch
system.cpu0.decode.BranchMispred                34629                       # Number of times decode detected a branch misprediction
system.cpu0.decode.DecodedInsts             113306582                       # Number of instructions handled by decode
system.cpu0.decode.SquashedInsts                61176                       # Number of squashed instructions handled by decode
system.cpu0.rename.SquashCycles                405844                       # Number of cycles rename is squashing
system.cpu0.rename.IdleCycles                41690838                       # Number of cycles rename is idle
system.cpu0.rename.BlockCycles                1229250                       # Number of cycles rename is blocking
system.cpu0.rename.serializeStallCycles        673936                       # count of cycles rename stalled for serializing inst
system.cpu0.rename.RunCycles                 56071164                       # Number of cycles rename is running
system.cpu0.rename.UnblockCycles              9177538                       # Number of cycles rename is unblocking
system.cpu0.rename.RenamedInsts             112810892                       # Number of instructions processed by rename
system.cpu0.rename.IQFullEvents               6912163                       # Number of times rename has blocked due to IQ full
system.cpu0.rename.LQFullEvents                 77760                       # Number of times rename has blocked due to LQ full
system.cpu0.rename.SQFullEvents                  2824                       # Number of times rename has blocked due to SQ full
system.cpu0.rename.RenamedOperands          142020142                       # Number of destination operands rename has renamed
system.cpu0.rename.RenameLookups            520544598                       # Number of register rename lookups that rename has made
system.cpu0.rename.int_rename_lookups       143451208                       # Number of integer rename lookups
system.cpu0.rename.fp_rename_lookups               16                       # Number of floating rename lookups
system.cpu0.rename.CommittedMaps            125804770                       # Number of HB maps that are committed
system.cpu0.rename.UndoneMaps                16215372                       # Number of HB maps that are undone due to squashing
system.cpu0.rename.serializingInsts             21443                       # count of serializing insts renamed
system.cpu0.rename.tempSerializingInsts         10141                       # count of temporary serializing insts renamed
system.cpu0.rename.skidInsts                  9886686                       # count of insts added to the skid buffer
system.cpu0.memDep0.insertedLoads            14628237                       # Number of loads inserted to the mem dependence unit.
system.cpu0.memDep0.insertedStores            9095481                       # Number of stores inserted to the mem dependence unit.
system.cpu0.memDep0.conflictingLoads          4374863                       # Number of conflicting loads.
system.cpu0.memDep0.conflictingStores         1605874                       # Number of conflicting stores.
system.cpu0.iq.iqInstsAdded                 111793846                       # Number of instructions added to the IQ (excludes non-spec)
system.cpu0.iq.iqNonSpecInstsAdded              20126                       # Number of non-speculative instructions added to the IQ
system.cpu0.iq.iqInstsIssued                103285883                       # Number of instructions issued
system.cpu0.iq.iqSquashedInstsIssued          1228220                       # Number of squashed instructions issued
system.cpu0.iq.iqSquashedInstsExamined       10304608                       # Number of squashed instructions iterated over during squash; mainly for profiling
system.cpu0.iq.iqSquashedOperandsExamined     39916842                       # Number of squashed operands that are examined and possibly removed from graph
system.cpu0.iq.iqSquashedNonSpecRemoved           664                       # Number of squashed non-spec instructions that were removed
system.cpu0.iq.issued_per_cycle::samples    109248570                       # Number of insts issued each cycle
system.cpu0.iq.issued_per_cycle::mean        0.945421                       # Number of insts issued each cycle
system.cpu0.iq.issued_per_cycle::stdev       0.659917                       # Number of insts issued each cycle
system.cpu0.iq.issued_per_cycle::underflows            0      0.00%      0.00% # Number of insts issued each cycle
system.cpu0.iq.issued_per_cycle::0           26932445     24.65%     24.65% # Number of insts issued each cycle
system.cpu0.iq.issued_per_cycle::1           61346367     56.15%     80.81% # Number of insts issued each cycle
system.cpu0.iq.issued_per_cycle::2           20969758     19.19%    100.00% # Number of insts issued each cycle
system.cpu0.iq.issued_per_cycle::overflows            0      0.00%    100.00% # Number of insts issued each cycle
system.cpu0.iq.issued_per_cycle::min_value            0                       # Number of insts issued each cycle
system.cpu0.iq.issued_per_cycle::max_value            2                       # Number of insts issued each cycle
system.cpu0.iq.issued_per_cycle::total      109248570                       # Number of insts issued each cycle
system.cpu0.iq.fu_full::No_OpClass                  0      0.00%      0.00% # attempts to use FU when none available
system.cpu0.iq.fu_full::IntAlu               59476591     93.42%     93.42% # attempts to use FU when none available
system.cpu0.iq.fu_full::IntMult                     0      0.00%     93.42% # attempts to use FU when none available
system.cpu0.iq.fu_full::IntDiv                      0      0.00%     93.42% # attempts to use FU when none available
system.cpu0.iq.fu_full::FloatAdd                    0      0.00%     93.42% # attempts to use FU when none available
system.cpu0.iq.fu_full::FloatCmp                    0      0.00%     93.42% # attempts to use FU when none available
system.cpu0.iq.fu_full::FloatCvt                    0      0.00%     93.42% # attempts to use FU when none available
system.cpu0.iq.fu_full::FloatMult                   0      0.00%     93.42% # attempts to use FU when none available
system.cpu0.iq.fu_full::FloatMultAcc                0      0.00%     93.42% # attempts to use FU when none available
system.cpu0.iq.fu_full::FloatDiv                    0      0.00%     93.42% # attempts to use FU when none available
system.cpu0.iq.fu_full::FloatMisc                   0      0.00%     93.42% # attempts to use FU when none available
system.cpu0.iq.fu_full::FloatSqrt                   0      0.00%     93.42% # attempts to use FU when none available
system.cpu0.iq.fu_full::SimdAdd                     0      0.00%     93.42% # attempts to use FU when none available
system.cpu0.iq.fu_full::SimdAddAcc                  0      0.00%     93.42% # attempts to use FU when none available
system.cpu0.iq.fu_full::SimdAlu                     0      0.00%     93.42% # attempts to use FU when none available
system.cpu0.iq.fu_full::SimdCmp                     0      0.00%     93.42% # attempts to use FU when none available
system.cpu0.iq.fu_full::SimdCvt                     0      0.00%     93.42% # attempts to use FU when none available
system.cpu0.iq.fu_full::SimdMisc                    0      0.00%     93.42% # attempts to use FU when none available
system.cpu0.iq.fu_full::SimdMult                    0      0.00%     93.42% # attempts to use FU when none available
system.cpu0.iq.fu_full::SimdMultAcc                 0      0.00%     93.42% # attempts to use FU when none available
system.cpu0.iq.fu_full::SimdShift                   0      0.00%     93.42% # attempts to use FU when none available
system.cpu0.iq.fu_full::SimdShiftAcc                0      0.00%     93.42% # attempts to use FU when none available
system.cpu0.iq.fu_full::SimdSqrt                    0      0.00%     93.42% # attempts to use FU when none available
system.cpu0.iq.fu_full::SimdFloatAdd                0      0.00%     93.42% # attempts to use FU when none available
system.cpu0.iq.fu_full::SimdFloatAlu                0      0.00%     93.42% # attempts to use FU when none available
system.cpu0.iq.fu_full::SimdFloatCmp                0      0.00%     93.42% # attempts to use FU when none available
system.cpu0.iq.fu_full::SimdFloatCvt                0      0.00%     93.42% # attempts to use FU when none available
system.cpu0.iq.fu_full::SimdFloatDiv                0      0.00%     93.42% # attempts to use FU when none available
system.cpu0.iq.fu_full::SimdFloatMisc               0      0.00%     93.42% # attempts to use FU when none available
system.cpu0.iq.fu_full::SimdFloatMult               0      0.00%     93.42% # attempts to use FU when none available
system.cpu0.iq.fu_full::SimdFloatMultAcc            0      0.00%     93.42% # attempts to use FU when none available
system.cpu0.iq.fu_full::SimdFloatSqrt               0      0.00%     93.42% # attempts to use FU when none available
system.cpu0.iq.fu_full::MemRead               2538307      3.99%     97.41% # attempts to use FU when none available
system.cpu0.iq.fu_full::MemWrite              1651013      2.59%    100.00% # attempts to use FU when none available
system.cpu0.iq.fu_full::FloatMemRead                0      0.00%    100.00% # attempts to use FU when none available
system.cpu0.iq.fu_full::FloatMemWrite               0      0.00%    100.00% # attempts to use FU when none available
system.cpu0.iq.fu_full::IprAccess                   0      0.00%    100.00% # attempts to use FU when none available
system.cpu0.iq.fu_full::InstPrefetch                0      0.00%    100.00% # attempts to use FU when none available
system.cpu0.iq.FU_type_0::No_OpClass                0      0.00%      0.00% # Type of FU issued
system.cpu0.iq.FU_type_0::IntAlu             79748445     77.21%     77.21% # Type of FU issued
system.cpu0.iq.FU_type_0::IntMult              523630      0.51%     77.72% # Type of FU issued
system.cpu0.iq.FU_type_0::IntDiv                    0      0.00%     77.72% # Type of FU issued
system.cpu0.iq.FU_type_0::FloatAdd                  0      0.00%     77.72% # Type of FU issued
system.cpu0.iq.FU_type_0::FloatCmp                  0      0.00%     77.72% # Type of FU issued
system.cpu0.iq.FU_type_0::FloatCvt                  0      0.00%     77.72% # Type of FU issued
system.cpu0.iq.FU_type_0::FloatMult                 0      0.00%     77.72% # Type of FU issued
system.cpu0.iq.FU_type_0::FloatMultAcc              0      0.00%     77.72% # Type of FU issued
system.cpu0.iq.FU_type_0::FloatDiv                  0      0.00%     77.72% # Type of FU issued
system.cpu0.iq.FU_type_0::FloatMisc                 0      0.00%     77.72% # Type of FU issued
system.cpu0.iq.FU_type_0::FloatSqrt                 0      0.00%     77.72% # Type of FU issued
system.cpu0.iq.FU_type_0::SimdAdd                   0      0.00%     77.72% # Type of FU issued
system.cpu0.iq.FU_type_0::SimdAddAcc                0      0.00%     77.72% # Type of FU issued
system.cpu0.iq.FU_type_0::SimdAlu                   0      0.00%     77.72% # Type of FU issued
system.cpu0.iq.FU_type_0::SimdCmp                   0      0.00%     77.72% # Type of FU issued
system.cpu0.iq.FU_type_0::SimdCvt                   0      0.00%     77.72% # Type of FU issued
system.cpu0.iq.FU_type_0::SimdMisc                  0      0.00%     77.72% # Type of FU issued
system.cpu0.iq.FU_type_0::SimdMult                  0      0.00%     77.72% # Type of FU issued
system.cpu0.iq.FU_type_0::SimdMultAcc               0      0.00%     77.72% # Type of FU issued
system.cpu0.iq.FU_type_0::SimdShift                 0      0.00%     77.72% # Type of FU issued
system.cpu0.iq.FU_type_0::SimdShiftAcc              0      0.00%     77.72% # Type of FU issued
system.cpu0.iq.FU_type_0::SimdSqrt                  0      0.00%     77.72% # Type of FU issued
system.cpu0.iq.FU_type_0::SimdFloatAdd              0      0.00%     77.72% # Type of FU issued
system.cpu0.iq.FU_type_0::SimdFloatAlu              0      0.00%     77.72% # Type of FU issued
system.cpu0.iq.FU_type_0::SimdFloatCmp              0      0.00%     77.72% # Type of FU issued
system.cpu0.iq.FU_type_0::SimdFloatCvt              0      0.00%     77.72% # Type of FU issued
system.cpu0.iq.FU_type_0::SimdFloatDiv              0      0.00%     77.72% # Type of FU issued
system.cpu0.iq.FU_type_0::SimdFloatMisc         11308      0.01%     77.73% # Type of FU issued
system.cpu0.iq.FU_type_0::SimdFloatMult             0      0.00%     77.73% # Type of FU issued
system.cpu0.iq.FU_type_0::SimdFloatMultAcc            0      0.00%     77.73% # Type of FU issued
system.cpu0.iq.FU_type_0::SimdFloatSqrt             0      0.00%     77.73% # Type of FU issued
system.cpu0.iq.FU_type_0::MemRead            14220583     13.77%     91.50% # Type of FU issued
system.cpu0.iq.FU_type_0::MemWrite            8781901      8.50%    100.00% # Type of FU issued
system.cpu0.iq.FU_type_0::FloatMemRead              0      0.00%    100.00% # Type of FU issued
system.cpu0.iq.FU_type_0::FloatMemWrite            16      0.00%    100.00% # Type of FU issued
system.cpu0.iq.FU_type_0::IprAccess                 0      0.00%    100.00% # Type of FU issued
system.cpu0.iq.FU_type_0::InstPrefetch              0      0.00%    100.00% # Type of FU issued
system.cpu0.iq.FU_type_0::total             103285883                       # Type of FU issued
system.cpu0.iq.rate                          0.789212                       # Inst issue rate
system.cpu0.iq.fu_busy_cnt                   63665911                       # FU busy when requested
system.cpu0.iq.fu_busy_rate                  0.616405                       # FU busy rate (busy events/executed inst)
system.cpu0.iq.int_inst_queue_reads         380714435                       # Number of integer instruction queue reads
system.cpu0.iq.int_inst_queue_writes        122120157                       # Number of integer instruction queue writes
system.cpu0.iq.int_inst_queue_wakeup_accesses    102969173                       # Number of integer instruction queue wakeup accesses
system.cpu0.iq.fp_inst_queue_reads                 32                       # Number of floating instruction queue reads
system.cpu0.iq.fp_inst_queue_writes                16                       # Number of floating instruction queue writes
system.cpu0.iq.fp_inst_queue_wakeup_accesses           16                       # Number of floating instruction queue wakeup accesses
system.cpu0.iq.int_alu_accesses             166951778                       # Number of integer alu accesses
system.cpu0.iq.fp_alu_accesses                     16                       # Number of floating point alu accesses
system.cpu0.iew.lsq.thread0.forwLoads         1869241                       # Number of loads that had data forwarded from stores
system.cpu0.iew.lsq.thread0.invAddrLoads            0                       # Number of loads ignored due to an invalid address
system.cpu0.iew.lsq.thread0.squashedLoads       914716                       # Number of loads squashed
system.cpu0.iew.lsq.thread0.ignoredResponses          260                       # Number of memory responses ignored because the instruction is squashed
system.cpu0.iew.lsq.thread0.memOrderViolation         1662                       # Number of memory ordering violations
system.cpu0.iew.lsq.thread0.squashedStores       433862                       # Number of stores squashed
system.cpu0.iew.lsq.thread0.invAddrSwpfs            0                       # Number of software prefetches ignored due to an invalid address
system.cpu0.iew.lsq.thread0.blockedLoads            0                       # Number of blocked loads due to partial load-store forwarding
system.cpu0.iew.lsq.thread0.rescheduledLoads        81587                       # Number of loads that were rescheduled
system.cpu0.iew.lsq.thread0.cacheBlocked         1204                       # Number of times an access to memory failed due to the cache being blocked
system.cpu0.iew.iewIdleCycles                       0                       # Number of cycles IEW is idle
system.cpu0.iew.iewSquashCycles                405844                       # Number of cycles IEW is squashing
system.cpu0.iew.iewBlockCycles                1154030                       # Number of cycles IEW is blocking
system.cpu0.iew.iewUnblockCycles                68099                       # Number of cycles IEW is unblocking
system.cpu0.iew.iewDispatchedInsts          111814078                       # Number of instructions dispatched to IQ
system.cpu0.iew.iewDispSquashedInsts            86900                       # Number of squashed instructions skipped by dispatch
system.cpu0.iew.iewDispLoadInsts             14628237                       # Number of dispatched load instructions
system.cpu0.iew.iewDispStoreInsts             9095481                       # Number of dispatched store instructions
system.cpu0.iew.iewDispNonSpecInsts             10049                       # Number of dispatched non-speculative instructions
system.cpu0.iew.iewIQFullEvents                  4666                       # Number of times the IQ has become full, causing a stall
system.cpu0.iew.iewLSQFullEvents                33895                       # Number of times the LSQ has become full, causing a stall
system.cpu0.iew.memOrderViolationEvents          1662                       # Number of memory order violations
system.cpu0.iew.predictedTakenIncorrect        212902                       # Number of branches that were predicted taken incorrectly
system.cpu0.iew.predictedNotTakenIncorrect       210666                       # Number of branches that were predicted not taken incorrectly
system.cpu0.iew.branchMispredicts              423568                       # Number of branch mispredicts detected at execute
system.cpu0.iew.iewExecutedInsts            103147539                       # Number of executed instructions
system.cpu0.iew.iewExecLoadInsts             14185568                       # Number of load instructions executed
system.cpu0.iew.iewExecSquashedInsts           138344                       # Number of squashed instructions skipped in execute
system.cpu0.iew.exec_swp                            0                       # number of swp insts executed
system.cpu0.iew.exec_nop                          106                       # number of nop insts executed
system.cpu0.iew.exec_refs                    22946003                       # number of memory reference insts executed
system.cpu0.iew.exec_branches                16217396                       # Number of branches executed
system.cpu0.iew.exec_stores                   8760435                       # Number of stores executed
system.cpu0.iew.exec_rate                    0.788155                       # Inst execution rate
system.cpu0.iew.wb_sent                     103003750                       # cumulative count of insts sent to commit
system.cpu0.iew.wb_count                    102969189                       # cumulative count of insts written-back
system.cpu0.iew.wb_producers                 72299985                       # num instructions producing a value
system.cpu0.iew.wb_consumers                164797720                       # num instructions consuming a value
system.cpu0.iew.wb_rate                      0.786792                       # insts written-back per cycle
system.cpu0.iew.wb_fanout                    0.438720                       # average fanout of values written-back
system.cpu0.commit.commitSquashedInsts       10304721                       # The number of squashed insts skipped by commit
system.cpu0.commit.commitNonSpecStalls          19462                       # The number of times commit has been forced to stall to communicate backwards
system.cpu0.commit.branchMispredicts           401148                       # The number of times a branch was mispredicted
system.cpu0.commit.committed_per_cycle::samples    107777826                       # Number of insts commited each cycle
system.cpu0.commit.committed_per_cycle::mean     0.941839                       # Number of insts commited each cycle
system.cpu0.commit.committed_per_cycle::stdev     1.032672                       # Number of insts commited each cycle
system.cpu0.commit.committed_per_cycle::underflows            0      0.00%      0.00% # Number of insts commited each cycle
system.cpu0.commit.committed_per_cycle::0     32113960     29.80%     29.80% # Number of insts commited each cycle
system.cpu0.commit.committed_per_cycle::1     62381759     57.88%     87.68% # Number of insts commited each cycle
system.cpu0.commit.committed_per_cycle::2      8068866      7.49%     95.16% # Number of insts commited each cycle
system.cpu0.commit.committed_per_cycle::3      2447016      2.27%     97.43% # Number of insts commited each cycle
system.cpu0.commit.committed_per_cycle::4       955425      0.89%     98.32% # Number of insts commited each cycle
system.cpu0.commit.committed_per_cycle::5       266971      0.25%     98.57% # Number of insts commited each cycle
system.cpu0.commit.committed_per_cycle::6       484918      0.45%     99.02% # Number of insts commited each cycle
system.cpu0.commit.committed_per_cycle::7       888526      0.82%     99.84% # Number of insts commited each cycle
system.cpu0.commit.committed_per_cycle::8       170385      0.16%    100.00% # Number of insts commited each cycle
system.cpu0.commit.committed_per_cycle::overflows            0      0.00%    100.00% # Number of insts commited each cycle
system.cpu0.commit.committed_per_cycle::min_value            0                       # Number of insts commited each cycle
system.cpu0.commit.committed_per_cycle::max_value            8                       # Number of insts commited each cycle
system.cpu0.commit.committed_per_cycle::total    107777826                       # Number of insts commited each cycle
system.cpu0.commit.committedInsts            89932930                       # Number of instructions committed
system.cpu0.commit.committedOps             101509364                       # Number of ops (including micro ops) committed
system.cpu0.commit.swp_count                        0                       # Number of s/w prefetches committed
system.cpu0.commit.refs                      22375140                       # Number of memory references committed
system.cpu0.commit.loads                     13713521                       # Number of loads committed
system.cpu0.commit.membars                       9974                       # Number of memory barriers committed
system.cpu0.commit.branches                  16036756                       # Number of branches committed
system.cpu0.commit.fp_insts                        16                       # Number of committed floating point instructions.
system.cpu0.commit.int_insts                 91628291                       # Number of committed integer instructions.
system.cpu0.commit.function_calls             2567570                       # Number of function calls committed.
system.cpu0.commit.op_class_0::No_OpClass            0      0.00%      0.00% # Class of committed instruction
system.cpu0.commit.op_class_0::IntAlu        78617768     77.45%     77.45% # Class of committed instruction
system.cpu0.commit.op_class_0::IntMult         505148      0.50%     77.95% # Class of committed instruction
system.cpu0.commit.op_class_0::IntDiv               0      0.00%     77.95% # Class of committed instruction
system.cpu0.commit.op_class_0::FloatAdd             0      0.00%     77.95% # Class of committed instruction
system.cpu0.commit.op_class_0::FloatCmp             0      0.00%     77.95% # Class of committed instruction
system.cpu0.commit.op_class_0::FloatCvt             0      0.00%     77.95% # Class of committed instruction
system.cpu0.commit.op_class_0::FloatMult            0      0.00%     77.95% # Class of committed instruction
system.cpu0.commit.op_class_0::FloatMultAcc            0      0.00%     77.95% # Class of committed instruction
system.cpu0.commit.op_class_0::FloatDiv             0      0.00%     77.95% # Class of committed instruction
system.cpu0.commit.op_class_0::FloatMisc            0      0.00%     77.95% # Class of committed instruction
system.cpu0.commit.op_class_0::FloatSqrt            0      0.00%     77.95% # Class of committed instruction
system.cpu0.commit.op_class_0::SimdAdd              0      0.00%     77.95% # Class of committed instruction
system.cpu0.commit.op_class_0::SimdAddAcc            0      0.00%     77.95% # Class of committed instruction
system.cpu0.commit.op_class_0::SimdAlu              0      0.00%     77.95% # Class of committed instruction
system.cpu0.commit.op_class_0::SimdCmp              0      0.00%     77.95% # Class of committed instruction
system.cpu0.commit.op_class_0::SimdCvt              0      0.00%     77.95% # Class of committed instruction
system.cpu0.commit.op_class_0::SimdMisc             0      0.00%     77.95% # Class of committed instruction
system.cpu0.commit.op_class_0::SimdMult             0      0.00%     77.95% # Class of committed instruction
system.cpu0.commit.op_class_0::SimdMultAcc            0      0.00%     77.95% # Class of committed instruction
system.cpu0.commit.op_class_0::SimdShift            0      0.00%     77.95% # Class of committed instruction
system.cpu0.commit.op_class_0::SimdShiftAcc            0      0.00%     77.95% # Class of committed instruction
system.cpu0.commit.op_class_0::SimdSqrt             0      0.00%     77.95% # Class of committed instruction
system.cpu0.commit.op_class_0::SimdFloatAdd            0      0.00%     77.95% # Class of committed instruction
system.cpu0.commit.op_class_0::SimdFloatAlu            0      0.00%     77.95% # Class of committed instruction
system.cpu0.commit.op_class_0::SimdFloatCmp            0      0.00%     77.95% # Class of committed instruction
system.cpu0.commit.op_class_0::SimdFloatCvt            0      0.00%     77.95% # Class of committed instruction
system.cpu0.commit.op_class_0::SimdFloatDiv            0      0.00%     77.95% # Class of committed instruction
system.cpu0.commit.op_class_0::SimdFloatMisc        11308      0.01%     77.96% # Class of committed instruction
system.cpu0.commit.op_class_0::SimdFloatMult            0      0.00%     77.96% # Class of committed instruction
system.cpu0.commit.op_class_0::SimdFloatMultAcc            0      0.00%     77.96% # Class of committed instruction
system.cpu0.commit.op_class_0::SimdFloatSqrt            0      0.00%     77.96% # Class of committed instruction
system.cpu0.commit.op_class_0::MemRead       13713521     13.51%     91.47% # Class of committed instruction
system.cpu0.commit.op_class_0::MemWrite       8661603      8.53%    100.00% # Class of committed instruction
system.cpu0.commit.op_class_0::FloatMemRead            0      0.00%    100.00% # Class of committed instruction
system.cpu0.commit.op_class_0::FloatMemWrite           16      0.00%    100.00% # Class of committed instruction
system.cpu0.commit.op_class_0::IprAccess            0      0.00%    100.00% # Class of committed instruction
system.cpu0.commit.op_class_0::InstPrefetch            0      0.00%    100.00% # Class of committed instruction
system.cpu0.commit.op_class_0::total        101509364                       # Class of committed instruction
system.cpu0.commit.bw_lim_events               170385                       # number cycles where commit BW limit reached
system.cpu0.rob.rob_reads                   219379439                       # The number of ROB reads
system.cpu0.rob.rob_writes                  225098979                       # The number of ROB writes
system.cpu0.timesIdled                        1056117                       # Number of times that the entire CPU went into an idle state and unscheduled itself
system.cpu0.idleCycles                       21623553                       # Total number of cycles that the CPU has spent unscheduled due to idling
system.cpu0.committedInsts                   89932930                       # Number of Instructions Simulated
system.cpu0.committedOps                    101509364                       # Number of Ops (including micro ops) Simulated
system.cpu0.cpi                              1.455219                       # CPI: Cycles Per Instruction
system.cpu0.cpi_total                        1.455219                       # CPI: Total CPI of All Threads
system.cpu0.ipc                              0.687182                       # IPC: Instructions Per Cycle
system.cpu0.ipc_total                        0.687182                       # IPC: Total IPC of All Threads
system.cpu0.int_regfile_reads               121063340                       # number of integer regfile reads
system.cpu0.int_regfile_writes               71267709                       # number of integer regfile writes
system.cpu0.fp_regfile_reads                     1136                       # number of floating regfile reads
system.cpu0.cc_regfile_reads                354748745                       # number of cc regfile reads
system.cpu0.cc_regfile_writes                54715821                       # number of cc regfile writes
system.cpu0.misc_regfile_reads               22852714                       # number of misc regfile reads
system.cpu0.misc_regfile_writes                 14068                       # number of misc regfile writes
system.cpu0.dcache.tags.pwrStateResidencyTicks::UNDEFINED 130872122000                       # Cumulative time (in ticks) in various power states
system.cpu0.dcache.tags.replacements           167375                       # number of replacements
system.cpu0.dcache.tags.tagsinuse          118.585125                       # Cycle average of tags in use
system.cpu0.dcache.tags.total_refs           19999347                       # Total number of references to valid blocks.
system.cpu0.dcache.tags.sampled_refs           167503                       # Sample count of references to valid blocks.
system.cpu0.dcache.tags.avg_refs           119.396948                       # Average number of references to valid blocks.
system.cpu0.dcache.tags.warmup_cycle       4041244000                       # Cycle when the warmup percentage was hit.
system.cpu0.dcache.tags.occ_blocks::cpu0.data   118.585125                       # Average occupied blocks per requestor
system.cpu0.dcache.tags.occ_percent::cpu0.data     0.926446                       # Average percentage of cache occupancy
system.cpu0.dcache.tags.occ_percent::total     0.926446                       # Average percentage of cache occupancy
system.cpu0.dcache.tags.occ_task_id_blocks::1024          128                       # Occupied blocks per task id
system.cpu0.dcache.tags.age_task_id_blocks_1024::0           29                       # Occupied blocks per task id
system.cpu0.dcache.tags.age_task_id_blocks_1024::1            8                       # Occupied blocks per task id
system.cpu0.dcache.tags.age_task_id_blocks_1024::2           57                       # Occupied blocks per task id
system.cpu0.dcache.tags.age_task_id_blocks_1024::3           26                       # Occupied blocks per task id
system.cpu0.dcache.tags.age_task_id_blocks_1024::4            8                       # Occupied blocks per task id
system.cpu0.dcache.tags.occ_task_id_percent::1024            1                       # Percentage of cache occupancy per task id
system.cpu0.dcache.tags.tag_accesses         20465114                       # Number of tag accesses
system.cpu0.dcache.tags.data_accesses        20465114                       # Number of data accesses
system.cpu0.dcache.pwrStateResidencyTicks::UNDEFINED 130872122000                       # Cumulative time (in ticks) in various power states
system.cpu0.dcache.ReadReq_hits::cpu0.data     11570912                       # number of ReadReq hits
system.cpu0.dcache.ReadReq_hits::total       11570912                       # number of ReadReq hits
system.cpu0.dcache.WriteReq_hits::cpu0.data      8416617                       # number of WriteReq hits
system.cpu0.dcache.WriteReq_hits::total       8416617                       # number of WriteReq hits
system.cpu0.dcache.LoadLockedReq_hits::cpu0.data         5546                       # number of LoadLockedReq hits
system.cpu0.dcache.LoadLockedReq_hits::total         5546                       # number of LoadLockedReq hits
system.cpu0.dcache.StoreCondReq_hits::cpu0.data         4875                       # number of StoreCondReq hits
system.cpu0.dcache.StoreCondReq_hits::total         4875                       # number of StoreCondReq hits
system.cpu0.dcache.demand_hits::cpu0.data     19987529                       # number of demand (read+write) hits
system.cpu0.dcache.demand_hits::total        19987529                       # number of demand (read+write) hits
system.cpu0.dcache.overall_hits::cpu0.data     19987529                       # number of overall hits
system.cpu0.dcache.overall_hits::total       19987529                       # number of overall hits
system.cpu0.dcache.ReadReq_misses::cpu0.data       205853                       # number of ReadReq misses
system.cpu0.dcache.ReadReq_misses::total       205853                       # number of ReadReq misses
system.cpu0.dcache.WriteReq_misses::cpu0.data        89752                       # number of WriteReq misses
system.cpu0.dcache.WriteReq_misses::total        89752                       # number of WriteReq misses
system.cpu0.dcache.LoadLockedReq_misses::cpu0.data          880                       # number of LoadLockedReq misses
system.cpu0.dcache.LoadLockedReq_misses::total          880                       # number of LoadLockedReq misses
system.cpu0.dcache.StoreCondReq_misses::cpu0.data         1029                       # number of StoreCondReq misses
system.cpu0.dcache.StoreCondReq_misses::total         1029                       # number of StoreCondReq misses
system.cpu0.dcache.demand_misses::cpu0.data       295605                       # number of demand (read+write) misses
system.cpu0.dcache.demand_misses::total        295605                       # number of demand (read+write) misses
system.cpu0.dcache.overall_misses::cpu0.data       295605                       # number of overall misses
system.cpu0.dcache.overall_misses::total       295605                       # number of overall misses
system.cpu0.dcache.ReadReq_miss_latency::cpu0.data   8589177000                       # number of ReadReq miss cycles
system.cpu0.dcache.ReadReq_miss_latency::total   8589177000                       # number of ReadReq miss cycles
system.cpu0.dcache.WriteReq_miss_latency::cpu0.data   4089670075                       # number of WriteReq miss cycles
system.cpu0.dcache.WriteReq_miss_latency::total   4089670075                       # number of WriteReq miss cycles
system.cpu0.dcache.LoadLockedReq_miss_latency::cpu0.data     20882000                       # number of LoadLockedReq miss cycles
system.cpu0.dcache.LoadLockedReq_miss_latency::total     20882000                       # number of LoadLockedReq miss cycles
system.cpu0.dcache.StoreCondReq_miss_latency::cpu0.data     17718000                       # number of StoreCondReq miss cycles
system.cpu0.dcache.StoreCondReq_miss_latency::total     17718000                       # number of StoreCondReq miss cycles
system.cpu0.dcache.StoreCondFailReq_miss_latency::cpu0.data      4670000                       # number of StoreCondFailReq miss cycles
system.cpu0.dcache.StoreCondFailReq_miss_latency::total      4670000                       # number of StoreCondFailReq miss cycles
system.cpu0.dcache.demand_miss_latency::cpu0.data  12678847075                       # number of demand (read+write) miss cycles
system.cpu0.dcache.demand_miss_latency::total  12678847075                       # number of demand (read+write) miss cycles
system.cpu0.dcache.overall_miss_latency::cpu0.data  12678847075                       # number of overall miss cycles
system.cpu0.dcache.overall_miss_latency::total  12678847075                       # number of overall miss cycles
system.cpu0.dcache.ReadReq_accesses::cpu0.data     11776765                       # number of ReadReq accesses(hits+misses)
system.cpu0.dcache.ReadReq_accesses::total     11776765                       # number of ReadReq accesses(hits+misses)
system.cpu0.dcache.WriteReq_accesses::cpu0.data      8506369                       # number of WriteReq accesses(hits+misses)
system.cpu0.dcache.WriteReq_accesses::total      8506369                       # number of WriteReq accesses(hits+misses)
system.cpu0.dcache.LoadLockedReq_accesses::cpu0.data         6426                       # number of LoadLockedReq accesses(hits+misses)
system.cpu0.dcache.LoadLockedReq_accesses::total         6426                       # number of LoadLockedReq accesses(hits+misses)
system.cpu0.dcache.StoreCondReq_accesses::cpu0.data         5904                       # number of StoreCondReq accesses(hits+misses)
system.cpu0.dcache.StoreCondReq_accesses::total         5904                       # number of StoreCondReq accesses(hits+misses)
system.cpu0.dcache.demand_accesses::cpu0.data     20283134                       # number of demand (read+write) accesses
system.cpu0.dcache.demand_accesses::total     20283134                       # number of demand (read+write) accesses
system.cpu0.dcache.overall_accesses::cpu0.data     20283134                       # number of overall (read+write) accesses
system.cpu0.dcache.overall_accesses::total     20283134                       # number of overall (read+write) accesses
system.cpu0.dcache.ReadReq_miss_rate::cpu0.data     0.017480                       # miss rate for ReadReq accesses
system.cpu0.dcache.ReadReq_miss_rate::total     0.017480                       # miss rate for ReadReq accesses
system.cpu0.dcache.WriteReq_miss_rate::cpu0.data     0.010551                       # miss rate for WriteReq accesses
system.cpu0.dcache.WriteReq_miss_rate::total     0.010551                       # miss rate for WriteReq accesses
system.cpu0.dcache.LoadLockedReq_miss_rate::cpu0.data     0.136944                       # miss rate for LoadLockedReq accesses
system.cpu0.dcache.LoadLockedReq_miss_rate::total     0.136944                       # miss rate for LoadLockedReq accesses
system.cpu0.dcache.StoreCondReq_miss_rate::cpu0.data     0.174289                       # miss rate for StoreCondReq accesses
system.cpu0.dcache.StoreCondReq_miss_rate::total     0.174289                       # miss rate for StoreCondReq accesses
system.cpu0.dcache.demand_miss_rate::cpu0.data     0.014574                       # miss rate for demand accesses
system.cpu0.dcache.demand_miss_rate::total     0.014574                       # miss rate for demand accesses
system.cpu0.dcache.overall_miss_rate::cpu0.data     0.014574                       # miss rate for overall accesses
system.cpu0.dcache.overall_miss_rate::total     0.014574                       # miss rate for overall accesses
system.cpu0.dcache.ReadReq_avg_miss_latency::cpu0.data 41724.808480                       # average ReadReq miss latency
system.cpu0.dcache.ReadReq_avg_miss_latency::total 41724.808480                       # average ReadReq miss latency
system.cpu0.dcache.WriteReq_avg_miss_latency::cpu0.data 45566.339190                       # average WriteReq miss latency
system.cpu0.dcache.WriteReq_avg_miss_latency::total 45566.339190                       # average WriteReq miss latency
system.cpu0.dcache.LoadLockedReq_avg_miss_latency::cpu0.data 23729.545455                       # average LoadLockedReq miss latency
system.cpu0.dcache.LoadLockedReq_avg_miss_latency::total 23729.545455                       # average LoadLockedReq miss latency
system.cpu0.dcache.StoreCondReq_avg_miss_latency::cpu0.data 17218.658892                       # average StoreCondReq miss latency
system.cpu0.dcache.StoreCondReq_avg_miss_latency::total 17218.658892                       # average StoreCondReq miss latency
system.cpu0.dcache.StoreCondFailReq_avg_miss_latency::cpu0.data          inf                       # average StoreCondFailReq miss latency
system.cpu0.dcache.StoreCondFailReq_avg_miss_latency::total          inf                       # average StoreCondFailReq miss latency
system.cpu0.dcache.demand_avg_miss_latency::cpu0.data 42891.179361                       # average overall miss latency
system.cpu0.dcache.demand_avg_miss_latency::total 42891.179361                       # average overall miss latency
system.cpu0.dcache.overall_avg_miss_latency::cpu0.data 42891.179361                       # average overall miss latency
system.cpu0.dcache.overall_avg_miss_latency::total 42891.179361                       # average overall miss latency
system.cpu0.dcache.blocked_cycles::no_mshrs        10814                       # number of cycles access was blocked
system.cpu0.dcache.blocked_cycles::no_targets            8                       # number of cycles access was blocked
system.cpu0.dcache.blocked::no_mshrs              588                       # number of cycles access was blocked
system.cpu0.dcache.blocked::no_targets              1                       # number of cycles access was blocked
system.cpu0.dcache.avg_blocked_cycles::no_mshrs    18.391156                       # average number of cycles each access was blocked
system.cpu0.dcache.avg_blocked_cycles::no_targets            8                       # average number of cycles each access was blocked
system.cpu0.dcache.writebacks::writebacks        67261                       # number of writebacks
system.cpu0.dcache.writebacks::total            67261                       # number of writebacks
system.cpu0.dcache.ReadReq_mshr_hits::cpu0.data        68254                       # number of ReadReq MSHR hits
system.cpu0.dcache.ReadReq_mshr_hits::total        68254                       # number of ReadReq MSHR hits
system.cpu0.dcache.WriteReq_mshr_hits::cpu0.data        58140                       # number of WriteReq MSHR hits
system.cpu0.dcache.WriteReq_mshr_hits::total        58140                       # number of WriteReq MSHR hits
system.cpu0.dcache.LoadLockedReq_mshr_hits::cpu0.data          374                       # number of LoadLockedReq MSHR hits
system.cpu0.dcache.LoadLockedReq_mshr_hits::total          374                       # number of LoadLockedReq MSHR hits
system.cpu0.dcache.demand_mshr_hits::cpu0.data       126394                       # number of demand (read+write) MSHR hits
system.cpu0.dcache.demand_mshr_hits::total       126394                       # number of demand (read+write) MSHR hits
system.cpu0.dcache.overall_mshr_hits::cpu0.data       126394                       # number of overall MSHR hits
system.cpu0.dcache.overall_mshr_hits::total       126394                       # number of overall MSHR hits
system.cpu0.dcache.ReadReq_mshr_misses::cpu0.data       137599                       # number of ReadReq MSHR misses
system.cpu0.dcache.ReadReq_mshr_misses::total       137599                       # number of ReadReq MSHR misses
system.cpu0.dcache.WriteReq_mshr_misses::cpu0.data        31612                       # number of WriteReq MSHR misses
system.cpu0.dcache.WriteReq_mshr_misses::total        31612                       # number of WriteReq MSHR misses
system.cpu0.dcache.LoadLockedReq_mshr_misses::cpu0.data          506                       # number of LoadLockedReq MSHR misses
system.cpu0.dcache.LoadLockedReq_mshr_misses::total          506                       # number of LoadLockedReq MSHR misses
system.cpu0.dcache.StoreCondReq_mshr_misses::cpu0.data         1028                       # number of StoreCondReq MSHR misses
system.cpu0.dcache.StoreCondReq_mshr_misses::total         1028                       # number of StoreCondReq MSHR misses
system.cpu0.dcache.demand_mshr_misses::cpu0.data       169211                       # number of demand (read+write) MSHR misses
system.cpu0.dcache.demand_mshr_misses::total       169211                       # number of demand (read+write) MSHR misses
system.cpu0.dcache.overall_mshr_misses::cpu0.data       169211                       # number of overall MSHR misses
system.cpu0.dcache.overall_mshr_misses::total       169211                       # number of overall MSHR misses
system.cpu0.dcache.ReadReq_mshr_miss_latency::cpu0.data   6021147001                       # number of ReadReq MSHR miss cycles
system.cpu0.dcache.ReadReq_mshr_miss_latency::total   6021147001                       # number of ReadReq MSHR miss cycles
system.cpu0.dcache.WriteReq_mshr_miss_latency::cpu0.data   1373176860                       # number of WriteReq MSHR miss cycles
system.cpu0.dcache.WriteReq_mshr_miss_latency::total   1373176860                       # number of WriteReq MSHR miss cycles
system.cpu0.dcache.LoadLockedReq_mshr_miss_latency::cpu0.data     11232000                       # number of LoadLockedReq MSHR miss cycles
system.cpu0.dcache.LoadLockedReq_mshr_miss_latency::total     11232000                       # number of LoadLockedReq MSHR miss cycles
system.cpu0.dcache.StoreCondReq_mshr_miss_latency::cpu0.data     15923997                       # number of StoreCondReq MSHR miss cycles
system.cpu0.dcache.StoreCondReq_mshr_miss_latency::total     15923997                       # number of StoreCondReq MSHR miss cycles
system.cpu0.dcache.StoreCondFailReq_mshr_miss_latency::cpu0.data      4408000                       # number of StoreCondFailReq MSHR miss cycles
system.cpu0.dcache.StoreCondFailReq_mshr_miss_latency::total      4408000                       # number of StoreCondFailReq MSHR miss cycles
system.cpu0.dcache.demand_mshr_miss_latency::cpu0.data   7394323861                       # number of demand (read+write) MSHR miss cycles
system.cpu0.dcache.demand_mshr_miss_latency::total   7394323861                       # number of demand (read+write) MSHR miss cycles
system.cpu0.dcache.overall_mshr_miss_latency::cpu0.data   7394323861                       # number of overall MSHR miss cycles
[...]
system.cpu7.icache.ReadReq_avg_miss_latency::cpu7.inst 40087.199359                       # average ReadReq miss latency
system.cpu7.icache.ReadReq_avg_miss_latency::total 40087.199359                       # average ReadReq miss latency
system.cpu7.icache.demand_avg_miss_latency::cpu7.inst 40087.199359                       # average overall miss latency
system.cpu7.icache.demand_avg_miss_latency::total 40087.199359                       # average overall miss latency
system.cpu7.icache.overall_avg_miss_latency::cpu7.inst 40087.199359                       # average overall miss latency
system.cpu7.icache.overall_avg_miss_latency::total 40087.199359                       # average overall miss latency
system.cpu7.icache.blocked_cycles::no_mshrs           50                       # number of cycles access was blocked
system.cpu7.icache.blocked_cycles::no_targets            0                       # number of cycles access was blocked
system.cpu7.icache.blocked::no_mshrs                6                       # number of cycles access was blocked
system.cpu7.icache.blocked::no_targets              0                       # number of cycles access was blocked
system.cpu7.icache.avg_blocked_cycles::no_mshrs     8.333333                       # average number of cycles each access was blocked
system.cpu7.icache.avg_blocked_cycles::no_targets          nan                       # average number of cycles each access was blocked
system.cpu7.icache.writebacks::writebacks       365257                       # number of writebacks
system.cpu7.icache.writebacks::total           365257                       # number of writebacks
system.cpu7.icache.ReadReq_mshr_hits::cpu7.inst       109974                       # number of ReadReq MSHR hits
system.cpu7.icache.ReadReq_mshr_hits::total       109974                       # number of ReadReq MSHR hits
system.cpu7.icache.demand_mshr_hits::cpu7.inst       109974                       # number of demand (read+write) MSHR hits
system.cpu7.icache.demand_mshr_hits::total       109974                       # number of demand (read+write) MSHR hits
system.cpu7.icache.overall_mshr_hits::cpu7.inst       109974                       # number of overall MSHR hits
system.cpu7.icache.overall_mshr_hits::total       109974                       # number of overall MSHR hits
system.cpu7.icache.ReadReq_mshr_misses::cpu7.inst       365385                       # number of ReadReq MSHR misses
system.cpu7.icache.ReadReq_mshr_misses::total       365385                       # number of ReadReq MSHR misses
system.cpu7.icache.demand_mshr_misses::cpu7.inst       365385                       # number of demand (read+write) MSHR misses
system.cpu7.icache.demand_mshr_misses::total       365385                       # number of demand (read+write) MSHR misses
system.cpu7.icache.overall_mshr_misses::cpu7.inst       365385                       # number of overall MSHR misses
system.cpu7.icache.overall_mshr_misses::total       365385                       # number of overall MSHR misses
system.cpu7.icache.ReadReq_mshr_miss_latency::cpu7.inst  16400786000                       # number of ReadReq MSHR miss cycles
system.cpu7.icache.ReadReq_mshr_miss_latency::total  16400786000                       # number of ReadReq MSHR miss cycles
system.cpu7.icache.demand_mshr_miss_latency::cpu7.inst  16400786000                       # number of demand (read+write) MSHR miss cycles
system.cpu7.icache.demand_mshr_miss_latency::total  16400786000                       # number of demand (read+write) MSHR miss cycles
system.cpu7.icache.overall_mshr_miss_latency::cpu7.inst  16400786000                       # number of overall MSHR miss cycles
system.cpu7.icache.overall_mshr_miss_latency::total  16400786000                       # number of overall MSHR miss cycles
system.cpu7.icache.ReadReq_mshr_miss_rate::cpu7.inst     0.040807                       # mshr miss rate for ReadReq accesses
system.cpu7.icache.ReadReq_mshr_miss_rate::total     0.040807                       # mshr miss rate for ReadReq accesses
system.cpu7.icache.demand_mshr_miss_rate::cpu7.inst     0.040807                       # mshr miss rate for demand accesses
system.cpu7.icache.demand_mshr_miss_rate::total     0.040807                       # mshr miss rate for demand accesses
system.cpu7.icache.overall_mshr_miss_rate::cpu7.inst     0.040807                       # mshr miss rate for overall accesses
system.cpu7.icache.overall_mshr_miss_rate::total     0.040807                       # mshr miss rate for overall accesses
system.cpu7.icache.ReadReq_avg_mshr_miss_latency::cpu7.inst 44886.314435                       # average ReadReq mshr miss latency
system.cpu7.icache.ReadReq_avg_mshr_miss_latency::total 44886.314435                       # average ReadReq mshr miss latency
system.cpu7.icache.demand_avg_mshr_miss_latency::cpu7.inst 44886.314435                       # average overall mshr miss latency
system.cpu7.icache.demand_avg_mshr_miss_latency::total 44886.314435                       # average overall mshr miss latency
system.cpu7.icache.overall_avg_mshr_miss_latency::cpu7.inst 44886.314435                       # average overall mshr miss latency
system.cpu7.icache.overall_avg_mshr_miss_latency::total 44886.314435                       # average overall mshr miss latency
system.cpu_voltage_domain.voltage                   1                       # Voltage in Volts
system.cpu_clk_domain.clock                       500                       # Clock period in ticks
system.membus.snoop_filter.tot_requests       9576298                       # Total number of requests made to the snoop filter.
system.membus.snoop_filter.hit_single_requests      3484426                       # Number of requests hitting in the snoop filter with a single holder of the requested data.
system.membus.snoop_filter.hit_multi_requests      3176381                       # Number of requests hitting in the snoop filter with multiple (>1) holders of the requested data.
system.membus.snoop_filter.tot_snoops               0                       # Total number of snoops made to the snoop filter.
system.membus.snoop_filter.hit_single_snoops            0                       # Number of snoops hitting in the snoop filter with a single holder of the requested data.
system.membus.snoop_filter.hit_multi_snoops            0                       # Number of snoops hitting in the snoop filter with multiple (>1) holders of the requested data.
system.membus.pwrStateResidencyTicks::UNDEFINED 130872122000                       # Cumulative time (in ticks) in various power states
system.membus.trans_dist::ReadResp            4098856                       # Transaction distribution
system.membus.trans_dist::ReadRespWithInvalidate           71                       # Transaction distribution
system.membus.trans_dist::WritebackDirty       291826                       # Transaction distribution
system.membus.trans_dist::WritebackClean      3582746                       # Transaction distribution
system.membus.trans_dist::CleanEvict           360375                       # Transaction distribution
system.membus.trans_dist::UpgradeReq             3660                       # Transaction distribution
system.membus.trans_dist::SCUpgradeReq           7522                       # Transaction distribution
system.membus.trans_dist::UpgradeResp            8321                       # Transaction distribution
system.membus.trans_dist::SCUpgradeFailReq         1094                       # Transaction distribution
system.membus.trans_dist::UpgradeFailResp         1094                       # Transaction distribution
system.membus.trans_dist::ReadExReq            161004                       # Transaction distribution
system.membus.trans_dist::ReadExResp           161004                       # Transaction distribution
system.membus.trans_dist::ReadCleanReq        3583808                       # Transaction distribution
system.membus.trans_dist::ReadSharedReq        515120                       # Transaction distribution
system.membus.pkt_count_system.cpu0.icache.mem_side::system.physmem.port      3550995                       # Packet count per connected master and slave (bytes)
system.membus.pkt_count_system.cpu0.dcache.mem_side::system.physmem.port       505579                       # Packet count per connected master and slave (bytes)
system.membus.pkt_count_system.cpu1.icache.mem_side::system.physmem.port       906616                       # Packet count per connected master and slave (bytes)
system.membus.pkt_count_system.cpu1.dcache.mem_side::system.physmem.port       101357                       # Packet count per connected master and slave (bytes)
system.membus.pkt_count_system.cpu2.icache.mem_side::system.physmem.port       902730                       # Packet count per connected master and slave (bytes)
system.membus.pkt_count_system.cpu2.dcache.mem_side::system.physmem.port       111344                       # Packet count per connected master and slave (bytes)
system.membus.pkt_count_system.cpu3.icache.mem_side::system.physmem.port       893298                       # Packet count per connected master and slave (bytes)
system.membus.pkt_count_system.cpu3.dcache.mem_side::system.physmem.port       311682                       # Packet count per connected master and slave (bytes)
system.membus.pkt_count_system.cpu4.icache.mem_side::system.physmem.port      1095145                       # Packet count per connected master and slave (bytes)
system.membus.pkt_count_system.cpu4.dcache.mem_side::system.physmem.port       686296                       # Packet count per connected master and slave (bytes)
system.membus.pkt_count_system.cpu5.icache.mem_side::system.physmem.port      1149919                       # Packet count per connected master and slave (bytes)
system.membus.pkt_count_system.cpu5.dcache.mem_side::system.physmem.port        99610                       # Packet count per connected master and slave (bytes)
system.membus.pkt_count_system.cpu6.icache.mem_side::system.physmem.port      1155608                       # Packet count per connected master and slave (bytes)
system.membus.pkt_count_system.cpu6.dcache.mem_side::system.physmem.port       109809                       # Packet count per connected master and slave (bytes)
system.membus.pkt_count_system.cpu7.icache.mem_side::system.physmem.port      1096027                       # Packet count per connected master and slave (bytes)
system.membus.pkt_count_system.cpu7.dcache.mem_side::system.physmem.port        66281                       # Packet count per connected master and slave (bytes)
system.membus.pkt_count::total               12742296                       # Packet count per connected master and slave (bytes)
system.membus.pkt_size_system.cpu0.icache.mem_side::system.physmem.port    151506304                       # Cumulative packet size per connected master and slave (bytes)
system.membus.pkt_size_system.cpu0.dcache.mem_side::system.physmem.port     15020032                       # Cumulative packet size per connected master and slave (bytes)
system.membus.pkt_size_system.cpu1.icache.mem_side::system.physmem.port     38679104                       # Cumulative packet size per connected master and slave (bytes)
system.membus.pkt_size_system.cpu1.dcache.mem_side::system.physmem.port      2739584                       # Cumulative packet size per connected master and slave (bytes)
system.membus.pkt_size_system.cpu2.icache.mem_side::system.physmem.port     38513600                       # Cumulative packet size per connected master and slave (bytes)
system.membus.pkt_size_system.cpu2.dcache.mem_side::system.physmem.port      3129728                       # Cumulative packet size per connected master and slave (bytes)
system.membus.pkt_size_system.cpu3.icache.mem_side::system.physmem.port     38111232                       # Cumulative packet size per connected master and slave (bytes)
system.membus.pkt_size_system.cpu3.dcache.mem_side::system.physmem.port      9787008                       # Cumulative packet size per connected master and slave (bytes)
system.membus.pkt_size_system.cpu4.icache.mem_side::system.physmem.port     46723456                       # Cumulative packet size per connected master and slave (bytes)
system.membus.pkt_size_system.cpu4.dcache.mem_side::system.physmem.port     21558848                       # Cumulative packet size per connected master and slave (bytes)
system.membus.pkt_size_system.cpu5.icache.mem_side::system.physmem.port     49060480                       # Cumulative packet size per connected master and slave (bytes)
system.membus.pkt_size_system.cpu5.dcache.mem_side::system.physmem.port      2944256                       # Cumulative packet size per connected master and slave (bytes)
system.membus.pkt_size_system.cpu6.icache.mem_side::system.physmem.port     49302656                       # Cumulative packet size per connected master and slave (bytes)
system.membus.pkt_size_system.cpu6.dcache.mem_side::system.physmem.port      3348864                       # Cumulative packet size per connected master and slave (bytes)
system.membus.pkt_size_system.cpu7.icache.mem_side::system.physmem.port     46761088                       # Cumulative packet size per connected master and slave (bytes)
system.membus.pkt_size_system.cpu7.dcache.mem_side::system.physmem.port      1835392                       # Cumulative packet size per connected master and slave (bytes)
system.membus.pkt_size::total               519021632                       # Cumulative packet size per connected master and slave (bytes)
system.membus.snoops                            34205                       # Total snoops (count)
system.membus.snoopTraffic                    1656576                       # Total snoop traffic (bytes)
system.membus.snoop_fanout::samples           4999318                       # Request fanout histogram
system.membus.snoop_fanout::mean             1.575201                       # Request fanout histogram
system.membus.snoop_fanout::stdev            2.624220                       # Request fanout histogram
system.membus.snoop_fanout::underflows              0      0.00%      0.00% # Request fanout histogram
system.membus.snoop_fanout::0                 2915897     58.33%     58.33% # Request fanout histogram
system.membus.snoop_fanout::1                  616244     12.33%     70.65% # Request fanout histogram
system.membus.snoop_fanout::2                  347943      6.96%     77.61% # Request fanout histogram
system.membus.snoop_fanout::3                  231617      4.63%     82.25% # Request fanout histogram
system.membus.snoop_fanout::4                  148381      2.97%     85.21% # Request fanout histogram
system.membus.snoop_fanout::5                  127927      2.56%     87.77% # Request fanout histogram
system.membus.snoop_fanout::6                  203694      4.07%     91.85% # Request fanout histogram
system.membus.snoop_fanout::7                  188442      3.77%     95.62% # Request fanout histogram
system.membus.snoop_fanout::8                   94528      1.89%     97.51% # Request fanout histogram
system.membus.snoop_fanout::9                   18597      0.37%     97.88% # Request fanout histogram
system.membus.snoop_fanout::10                  43287      0.87%     98.74% # Request fanout histogram
system.membus.snoop_fanout::11                  36493      0.73%     99.47% # Request fanout histogram
system.membus.snoop_fanout::12                   8742      0.17%     99.65% # Request fanout histogram
system.membus.snoop_fanout::13                  15398      0.31%     99.96% # Request fanout histogram
system.membus.snoop_fanout::14                   1357      0.03%     99.98% # Request fanout histogram
system.membus.snoop_fanout::15                    771      0.02%    100.00% # Request fanout histogram
system.membus.snoop_fanout::16                      0      0.00%    100.00% # Request fanout histogram
system.membus.snoop_fanout::overflows               0      0.00%    100.00% # Request fanout histogram
system.membus.snoop_fanout::min_value               0                       # Request fanout histogram
system.membus.snoop_fanout::max_value              15                       # Request fanout histogram
system.membus.snoop_fanout::total             4999318                       # Request fanout histogram
system.membus.reqLayer0.occupancy         25489865708                       # Layer occupancy (ticks)
system.membus.reqLayer0.utilization              19.5                       # Layer utilization (%)
system.membus.respLayer1.occupancy         5918540000                       # Layer occupancy (ticks)
system.membus.respLayer1.utilization              4.5                       # Layer utilization (%)
system.membus.respLayer2.occupancy          849292126                       # Layer occupancy (ticks)
system.membus.respLayer2.utilization              0.6                       # Layer utilization (%)
system.membus.respLayer5.occupancy         1511275000                       # Layer occupancy (ticks)
system.membus.respLayer5.utilization              1.2                       # Layer utilization (%)
system.membus.respLayer6.occupancy          184501800                       # Layer occupancy (ticks)
system.membus.respLayer6.utilization              0.1                       # Layer utilization (%)
system.membus.respLayer9.occupancy         1504775000                       # Layer occupancy (ticks)
system.membus.respLayer9.utilization              1.1                       # Layer utilization (%)
system.membus.respLayer10.occupancy         201139256                       # Layer occupancy (ticks)
system.membus.respLayer10.utilization             0.2                       # Layer utilization (%)
system.membus.respLayer13.occupancy        1489050000                       # Layer occupancy (ticks)
system.membus.respLayer13.utilization             1.1                       # Layer utilization (%)
system.membus.respLayer14.occupancy         524829847                       # Layer occupancy (ticks)
system.membus.respLayer14.utilization             0.4                       # Layer utilization (%)
system.membus.respLayer17.occupancy        1825455000                       # Layer occupancy (ticks)
system.membus.respLayer17.utilization             1.4                       # Layer utilization (%)
system.membus.respLayer18.occupancy        1150102470                       # Layer occupancy (ticks)
system.membus.respLayer18.utilization             0.9                       # Layer utilization (%)
system.membus.respLayer21.occupancy        1916745000                       # Layer occupancy (ticks)
system.membus.respLayer21.utilization             1.5                       # Layer utilization (%)
system.membus.respLayer22.occupancy         173963071                       # Layer occupancy (ticks)
system.membus.respLayer22.utilization             0.1                       # Layer utilization (%)
system.membus.respLayer25.occupancy        1926270000                       # Layer occupancy (ticks)
system.membus.respLayer25.utilization             1.5                       # Layer utilization (%)
system.membus.respLayer26.occupancy         188763890                       # Layer occupancy (ticks)
system.membus.respLayer26.utilization             0.1                       # Layer utilization (%)
system.membus.respLayer29.occupancy        1826925000                       # Layer occupancy (ticks)
system.membus.respLayer29.utilization             1.4                       # Layer utilization (%)
system.membus.respLayer30.occupancy         123179093                       # Layer occupancy (ticks)
system.membus.respLayer30.utilization             0.1                       # Layer utilization (%)

---------- End Simulation Statistics   ----------
