
---------- Begin Simulation Statistics ----------
sim_seconds                                  0.143896                       # Number of seconds simulated
sim_ticks                                143895880000                       # Number of ticks simulated
final_tick                               143895880000                       # Number of ticks from beginning of simulation (restored from checkpoints and never reset)
sim_freq                                 1000000000000                       # Frequency of simulated ticks
host_inst_rate                                 226884                       # Simulator instruction rate (inst/s)
host_op_rate                                   249550                       # Simulator op (including micro ops) rate (op/s)
host_tick_rate                               43010222                       # Simulator tick rate (ticks/s)
host_mem_usage                                 721296                       # Number of bytes of host memory used
host_seconds                                  3345.62                       # Real time elapsed on the host
sim_insts                                   759066914                       # Number of instructions simulated
sim_ops                                     834898888                       # Number of ops (including micro ops) simulated
system.voltage_domain.voltage                       1                       # Voltage in Volts
system.clk_domain.clock                          1000                       # Clock period in ticks
system.physmem.pwrStateResidencyTicks::UNDEFINED 143895880000                       # Cumulative time (in ticks) in various power states
system.physmem.bytes_read::cpu0.inst         99185472                       # Number of bytes read from this memory
system.physmem.bytes_read::cpu0.data          3599424                       # Number of bytes read from this memory
system.physmem.bytes_read::cpu1.inst         23185152                       # Number of bytes read from this memory
system.physmem.bytes_read::cpu1.data          1600896                       # Number of bytes read from this memory
system.physmem.bytes_read::cpu2.inst         23336320                       # Number of bytes read from this memory
system.physmem.bytes_read::cpu2.data          1570304                       # Number of bytes read from this memory
system.physmem.bytes_read::cpu3.inst         23206080                       # Number of bytes read from this memory
system.physmem.bytes_read::cpu3.data          1683200                       # Number of bytes read from this memory
system.physmem.bytes_read::cpu4.inst         23155328                       # Number of bytes read from this memory
system.physmem.bytes_read::cpu4.data          1627456                       # Number of bytes read from this memory
system.physmem.bytes_read::cpu5.inst         23249984                       # Number of bytes read from this memory
system.physmem.bytes_read::cpu5.data          1701888                       # Number of bytes read from this memory
system.physmem.bytes_read::cpu6.inst         23292800                       # Number of bytes read from this memory
system.physmem.bytes_read::cpu6.data          1627776                       # Number of bytes read from this memory
system.physmem.bytes_read::cpu7.inst         15612288                       # Number of bytes read from this memory
system.physmem.bytes_read::cpu7.data          1131200                       # Number of bytes read from this memory
system.physmem.bytes_read::total            268765568                       # Number of bytes read from this memory
system.physmem.bytes_inst_read::cpu0.inst     99185472                       # Number of instructions bytes read from this memory
system.physmem.bytes_inst_read::cpu1.inst     23185152                       # Number of instructions bytes read from this memory
system.physmem.bytes_inst_read::cpu2.inst     23336320                       # Number of instructions bytes read from this memory
system.physmem.bytes_inst_read::cpu3.inst     23206080                       # Number of instructions bytes read from this memory
system.physmem.bytes_inst_read::cpu4.inst     23155328                       # Number of instructions bytes read from this memory
system.physmem.bytes_inst_read::cpu5.inst     23249984                       # Number of instructions bytes read from this memory
system.physmem.bytes_inst_read::cpu6.inst     23292800                       # Number of instructions bytes read from this memory
system.physmem.bytes_inst_read::cpu7.inst     15612288                       # Number of instructions bytes read from this memory
system.physmem.bytes_inst_read::total       254223424                       # Number of instructions bytes read from this memory
system.physmem.bytes_written::writebacks      5643008                       # Number of bytes written to this memory
system.physmem.bytes_written::total           5643008                       # Number of bytes written to this memory
system.physmem.num_reads::cpu0.inst           1549773                       # Number of read requests responded to by this memory
system.physmem.num_reads::cpu0.data             56241                       # Number of read requests responded to by this memory
system.physmem.num_reads::cpu1.inst            362268                       # Number of read requests responded to by this memory
system.physmem.num_reads::cpu1.data             25014                       # Number of read requests responded to by this memory
system.physmem.num_reads::cpu2.inst            364630                       # Number of read requests responded to by this memory
system.physmem.num_reads::cpu2.data             24536                       # Number of read requests responded to by this memory
system.physmem.num_reads::cpu3.inst            362595                       # Number of read requests responded to by this memory
system.physmem.num_reads::cpu3.data             26300                       # Number of read requests responded to by this memory
system.physmem.num_reads::cpu4.inst            361802                       # Number of read requests responded to by this memory
system.physmem.num_reads::cpu4.data             25429                       # Number of read requests responded to by this memory
system.physmem.num_reads::cpu5.inst            363281                       # Number of read requests responded to by this memory
system.physmem.num_reads::cpu5.data             26592                       # Number of read requests responded to by this memory
system.physmem.num_reads::cpu6.inst            363950                       # Number of read requests responded to by this memory
system.physmem.num_reads::cpu6.data             25434                       # Number of read requests responded to by this memory
system.physmem.num_reads::cpu7.inst            243942                       # Number of read requests responded to by this memory
system.physmem.num_reads::cpu7.data             17675                       # Number of read requests responded to by this memory
system.physmem.num_reads::total               4199462                       # Number of read requests responded to by this memory
system.physmem.num_writes::writebacks           88172                       # Number of write requests responded to by this memory
system.physmem.num_writes::total                88172                       # Number of write requests responded to by this memory
system.physmem.bw_read::cpu0.inst           689286392                       # Total read bandwidth from this memory (bytes/s)
system.physmem.bw_read::cpu0.data            25014087                       # Total read bandwidth from this memory (bytes/s)
system.physmem.bw_read::cpu1.inst           161124502                       # Total read bandwidth from this memory (bytes/s)
system.physmem.bw_read::cpu1.data            11125378                       # Total read bandwidth from this memory (bytes/s)
system.physmem.bw_read::cpu2.inst           162175039                       # Total read bandwidth from this memory (bytes/s)
system.physmem.bw_read::cpu2.data            10912779                       # Total read bandwidth from this memory (bytes/s)
system.physmem.bw_read::cpu3.inst           161269940                       # Total read bandwidth from this memory (bytes/s)
system.physmem.bw_read::cpu3.data            11697347                       # Total read bandwidth from this memory (bytes/s)
system.physmem.bw_read::cpu4.inst           160917241                       # Total read bandwidth from this memory (bytes/s)
system.physmem.bw_read::cpu4.data            11309956                       # Total read bandwidth from this memory (bytes/s)
system.physmem.bw_read::cpu5.inst           161575050                       # Total read bandwidth from this memory (bytes/s)
system.physmem.bw_read::cpu5.data            11827218                       # Total read bandwidth from this memory (bytes/s)
system.physmem.bw_read::cpu6.inst           161872598                       # Total read bandwidth from this memory (bytes/s)
system.physmem.bw_read::cpu6.data            11312179                       # Total read bandwidth from this memory (bytes/s)
system.physmem.bw_read::cpu7.inst           108497116                       # Total read bandwidth from this memory (bytes/s)
system.physmem.bw_read::cpu7.data             7861240                       # Total read bandwidth from this memory (bytes/s)
system.physmem.bw_read::total              1867778063                       # Total read bandwidth from this memory (bytes/s)
system.physmem.bw_inst_read::cpu0.inst      689286392                       # Instruction read bandwidth from this memory (bytes/s)
system.physmem.bw_inst_read::cpu1.inst      161124502                       # Instruction read bandwidth from this memory (bytes/s)
system.physmem.bw_inst_read::cpu2.inst      162175039                       # Instruction read bandwidth from this memory (bytes/s)
system.physmem.bw_inst_read::cpu3.inst      161269940                       # Instruction read bandwidth from this memory (bytes/s)
system.physmem.bw_inst_read::cpu4.inst      160917241                       # Instruction read bandwidth from this memory (bytes/s)
system.physmem.bw_inst_read::cpu5.inst      161575050                       # Instruction read bandwidth from this memory (bytes/s)
system.physmem.bw_inst_read::cpu6.inst      161872598                       # Instruction read bandwidth from this memory (bytes/s)
system.physmem.bw_inst_read::cpu7.inst      108497116                       # Instruction read bandwidth from this memory (bytes/s)
system.physmem.bw_inst_read::total         1766717880                       # Instruction read bandwidth from this memory (bytes/s)
system.physmem.bw_write::writebacks          39215911                       # Write bandwidth from this memory (bytes/s)
system.physmem.bw_write::total               39215911                       # Write bandwidth from this memory (bytes/s)
system.physmem.bw_total::writebacks          39215911                       # Total bandwidth to/from this memory (bytes/s)
system.physmem.bw_total::cpu0.inst          689286392                       # Total bandwidth to/from this memory (bytes/s)
system.physmem.bw_total::cpu0.data           25014087                       # Total bandwidth to/from this memory (bytes/s)
system.physmem.bw_total::cpu1.inst          161124502                       # Total bandwidth to/from this memory (bytes/s)
system.physmem.bw_total::cpu1.data           11125378                       # Total bandwidth to/from this memory (bytes/s)
system.physmem.bw_total::cpu2.inst          162175039                       # Total bandwidth to/from this memory (bytes/s)
system.physmem.bw_total::cpu2.data           10912779                       # Total bandwidth to/from this memory (bytes/s)
system.physmem.bw_total::cpu3.inst          161269940                       # Total bandwidth to/from this memory (bytes/s)
system.physmem.bw_total::cpu3.data           11697347                       # Total bandwidth to/from this memory (bytes/s)
system.physmem.bw_total::cpu4.inst          160917241                       # Total bandwidth to/from this memory (bytes/s)
system.physmem.bw_total::cpu4.data           11309956                       # Total bandwidth to/from this memory (bytes/s)
system.physmem.bw_total::cpu5.inst          161575050                       # Total bandwidth to/from this memory (bytes/s)
system.physmem.bw_total::cpu5.data           11827218                       # Total bandwidth to/from this memory (bytes/s)
system.physmem.bw_total::cpu6.inst          161872598                       # Total bandwidth to/from this memory (bytes/s)
system.physmem.bw_total::cpu6.data           11312179                       # Total bandwidth to/from this memory (bytes/s)
system.physmem.bw_total::cpu7.inst          108497116                       # Total bandwidth to/from this memory (bytes/s)
system.physmem.bw_total::cpu7.data            7861240                       # Total bandwidth to/from this memory (bytes/s)
system.physmem.bw_total::total             1906993974                       # Total bandwidth to/from this memory (bytes/s)
system.pwrStateResidencyTicks::UNDEFINED 143895880000                       # Cumulative time (in ticks) in various power states
system.cpu0.branchPred.lookups               17639761                       # Number of BP lookups
system.cpu0.branchPred.condPredicted         10718610                       # Number of conditional branches predicted
system.cpu0.branchPred.condIncorrect           439084                       # Number of conditional branches incorrect
system.cpu0.branchPred.BTBLookups             9607151                       # Number of BTB lookups
system.cpu0.branchPred.BTBHits                8357103                       # Number of BTB hits
system.cpu0.branchPred.BTBCorrect                   0                       # Number of correct BTB predictions (this stat may not work properly.
system.cpu0.branchPred.BTBHitPct            86.988359                       # BTB Hit Percentage
system.cpu0.branchPred.usedRAS                2218475                       # Number of times the RAS was used to get a target.
system.cpu0.branchPred.RASInCorrect             40939                       # Number of incorrect RAS predictions.
system.cpu0.branchPred.indirectLookups         560299                       # Number of indirect predictor lookups.
system.cpu0.branchPred.indirectHits            557332                       # Number of indirect target hits.
system.cpu0.branchPred.indirectMisses            2967                       # Number of indirect misses.
system.cpu0.branchPredindirectMispredicted         9514                       # Number of mispredicted indirect branches.
system.cpu0.dstage2_mmu.stage2_tlb.walker.pwrStateResidencyTicks::UNDEFINED 143895880000                       # Cumulative time (in ticks) in various power states
system.cpu0.dstage2_mmu.stage2_tlb.walker.walks            0                       # Table walker walks requested
system.cpu0.dstage2_mmu.stage2_tlb.walker.walkRequestOrigin_Requested::Data            0                       # Table walker requests started/completed, data/inst
system.cpu0.dstage2_mmu.stage2_tlb.walker.walkRequestOrigin_Requested::Inst            0                       # Table walker requests started/completed, data/inst
system.cpu0.dstage2_mmu.stage2_tlb.walker.walkRequestOrigin_Requested::total            0                       # Table walker requests started/completed, data/inst
system.cpu0.dstage2_mmu.stage2_tlb.walker.walkRequestOrigin_Completed::Data            0                       # Table walker requests started/completed, data/inst
system.cpu0.dstage2_mmu.stage2_tlb.walker.walkRequestOrigin_Completed::Inst            0                       # Table walker requests started/completed, data/inst
system.cpu0.dstage2_mmu.stage2_tlb.walker.walkRequestOrigin_Completed::total            0                       # Table walker requests started/completed, data/inst
system.cpu0.dstage2_mmu.stage2_tlb.walker.walkRequestOrigin::total            0                       # Table walker requests started/completed, data/inst
system.cpu0.dstage2_mmu.stage2_tlb.inst_hits            0                       # ITB inst hits
system.cpu0.dstage2_mmu.stage2_tlb.inst_misses            0                       # ITB inst misses
system.cpu0.dstage2_mmu.stage2_tlb.read_hits            0                       # DTB read hits
system.cpu0.dstage2_mmu.stage2_tlb.read_misses            0                       # DTB read misses
system.cpu0.dstage2_mmu.stage2_tlb.write_hits            0                       # DTB write hits
system.cpu0.dstage2_mmu.stage2_tlb.write_misses            0                       # DTB write misses
system.cpu0.dstage2_mmu.stage2_tlb.flush_tlb            0                       # Number of times complete TLB was flushed
system.cpu0.dstage2_mmu.stage2_tlb.flush_tlb_mva            0                       # Number of times TLB was flushed by MVA
system.cpu0.dstage2_mmu.stage2_tlb.flush_tlb_mva_asid            0                       # Number of times TLB was flushed by MVA & ASID
system.cpu0.dstage2_mmu.stage2_tlb.flush_tlb_asid            0                       # Number of times TLB was flushed by ASID
system.cpu0.dstage2_mmu.stage2_tlb.flush_entries            0                       # Number of entries that have been flushed from TLB
system.cpu0.dstage2_mmu.stage2_tlb.align_faults            0                       # Number of TLB faults due to alignment restrictions
system.cpu0.dstage2_mmu.stage2_tlb.prefetch_faults            0                       # Number of TLB faults due to prefetch
system.cpu0.dstage2_mmu.stage2_tlb.domain_faults            0                       # Number of TLB faults due to domain restrictions
system.cpu0.dstage2_mmu.stage2_tlb.perms_faults            0                       # Number of TLB faults due to permissions restrictions
system.cpu0.dstage2_mmu.stage2_tlb.read_accesses            0                       # DTB read accesses
system.cpu0.dstage2_mmu.stage2_tlb.write_accesses            0                       # DTB write accesses
system.cpu0.dstage2_mmu.stage2_tlb.inst_accesses            0                       # ITB inst accesses
system.cpu0.dstage2_mmu.stage2_tlb.hits             0                       # DTB hits
system.cpu0.dstage2_mmu.stage2_tlb.misses            0                       # DTB misses
system.cpu0.dstage2_mmu.stage2_tlb.accesses            0                       # DTB accesses
system.cpu0.dtb.walker.pwrStateResidencyTicks::UNDEFINED 143895880000                       # Cumulative time (in ticks) in various power states
system.cpu0.dtb.walker.walks                        0                       # Table walker walks requested
system.cpu0.dtb.walker.walkRequestOrigin_Requested::Data            0                       # Table walker requests started/completed, data/inst
system.cpu0.dtb.walker.walkRequestOrigin_Requested::Inst            0                       # Table walker requests started/completed, data/inst
system.cpu0.dtb.walker.walkRequestOrigin_Requested::total            0                       # Table walker requests started/completed, data/inst
system.cpu0.dtb.walker.walkRequestOrigin_Completed::Data            0                       # Table walker requests started/completed, data/inst
system.cpu0.dtb.walker.walkRequestOrigin_Completed::Inst            0                       # Table walker requests started/completed, data/inst
system.cpu0.dtb.walker.walkRequestOrigin_Completed::total            0                       # Table walker requests started/completed, data/inst
system.cpu0.dtb.walker.walkRequestOrigin::total            0                       # Table walker requests started/completed, data/inst
system.cpu0.dtb.inst_hits                           0                       # ITB inst hits
system.cpu0.dtb.inst_misses                         0                       # ITB inst misses
system.cpu0.dtb.read_hits                           0                       # DTB read hits
system.cpu0.dtb.read_misses                         0                       # DTB read misses
system.cpu0.dtb.write_hits                          0                       # DTB write hits
system.cpu0.dtb.write_misses                        0                       # DTB write misses
system.cpu0.dtb.flush_tlb                           0                       # Number of times complete TLB was flushed
system.cpu0.dtb.flush_tlb_mva                       0                       # Number of times TLB was flushed by MVA
system.cpu0.dtb.flush_tlb_mva_asid                  0                       # Number of times TLB was flushed by MVA & ASID
system.cpu0.dtb.flush_tlb_asid                      0                       # Number of times TLB was flushed by ASID
system.cpu0.dtb.flush_entries                       0                       # Number of entries that have been flushed from TLB
system.cpu0.dtb.align_faults                        0                       # Number of TLB faults due to alignment restrictions
system.cpu0.dtb.prefetch_faults                     0                       # Number of TLB faults due to prefetch
system.cpu0.dtb.domain_faults                       0                       # Number of TLB faults due to domain restrictions
system.cpu0.dtb.perms_faults                        0                       # Number of TLB faults due to permissions restrictions
system.cpu0.dtb.read_accesses                       0                       # DTB read accesses
system.cpu0.dtb.write_accesses                      0                       # DTB write accesses
system.cpu0.dtb.inst_accesses                       0                       # ITB inst accesses
system.cpu0.dtb.hits                                0                       # DTB hits
system.cpu0.dtb.misses                              0                       # DTB misses
system.cpu0.dtb.accesses                            0                       # DTB accesses
system.cpu0.istage2_mmu.stage2_tlb.walker.pwrStateResidencyTicks::UNDEFINED 143895880000                       # Cumulative time (in ticks) in various power states
system.cpu0.istage2_mmu.stage2_tlb.walker.walks            0                       # Table walker walks requested
system.cpu0.istage2_mmu.stage2_tlb.walker.walkRequestOrigin_Requested::Data            0                       # Table walker requests started/completed, data/inst
system.cpu0.istage2_mmu.stage2_tlb.walker.walkRequestOrigin_Requested::Inst            0                       # Table walker requests started/completed, data/inst
system.cpu0.istage2_mmu.stage2_tlb.walker.walkRequestOrigin_Requested::total            0                       # Table walker requests started/completed, data/inst
system.cpu0.istage2_mmu.stage2_tlb.walker.walkRequestOrigin_Completed::Data            0                       # Table walker requests started/completed, data/inst
system.cpu0.istage2_mmu.stage2_tlb.walker.walkRequestOrigin_Completed::Inst            0                       # Table walker requests started/completed, data/inst
system.cpu0.istage2_mmu.stage2_tlb.walker.walkRequestOrigin_Completed::total            0                       # Table walker requests started/completed, data/inst
system.cpu0.istage2_mmu.stage2_tlb.walker.walkRequestOrigin::total            0                       # Table walker requests started/completed, data/inst
system.cpu0.istage2_mmu.stage2_tlb.inst_hits            0                       # ITB inst hits
system.cpu0.istage2_mmu.stage2_tlb.inst_misses            0                       # ITB inst misses
system.cpu0.istage2_mmu.stage2_tlb.read_hits            0                       # DTB read hits
system.cpu0.istage2_mmu.stage2_tlb.read_misses            0                       # DTB read misses
system.cpu0.istage2_mmu.stage2_tlb.write_hits            0                       # DTB write hits
system.cpu0.istage2_mmu.stage2_tlb.write_misses            0                       # DTB write misses
system.cpu0.istage2_mmu.stage2_tlb.flush_tlb            0                       # Number of times complete TLB was flushed
system.cpu0.istage2_mmu.stage2_tlb.flush_tlb_mva            0                       # Number of times TLB was flushed by MVA
system.cpu0.istage2_mmu.stage2_tlb.flush_tlb_mva_asid            0                       # Number of times TLB was flushed by MVA & ASID
system.cpu0.istage2_mmu.stage2_tlb.flush_tlb_asid            0                       # Number of times TLB was flushed by ASID
system.cpu0.istage2_mmu.stage2_tlb.flush_entries            0                       # Number of entries that have been flushed from TLB
system.cpu0.istage2_mmu.stage2_tlb.align_faults            0                       # Number of TLB faults due to alignment restrictions
system.cpu0.istage2_mmu.stage2_tlb.prefetch_faults            0                       # Number of TLB faults due to prefetch
system.cpu0.istage2_mmu.stage2_tlb.domain_faults            0                       # Number of TLB faults due to domain restrictions
system.cpu0.istage2_mmu.stage2_tlb.perms_faults            0                       # Number of TLB faults due to permissions restrictions
system.cpu0.istage2_mmu.stage2_tlb.read_accesses            0                       # DTB read accesses
system.cpu0.istage2_mmu.stage2_tlb.write_accesses            0                       # DTB write accesses
system.cpu0.istage2_mmu.stage2_tlb.inst_accesses            0                       # ITB inst accesses
system.cpu0.istage2_mmu.stage2_tlb.hits             0                       # DTB hits
system.cpu0.istage2_mmu.stage2_tlb.misses            0                       # DTB misses
system.cpu0.istage2_mmu.stage2_tlb.accesses            0                       # DTB accesses
system.cpu0.itb.walker.pwrStateResidencyTicks::UNDEFINED 143895880000                       # Cumulative time (in ticks) in various power states
system.cpu0.itb.walker.walks                        0                       # Table walker walks requested
system.cpu0.itb.walker.walkRequestOrigin_Requested::Data            0                       # Table walker requests started/completed, data/inst
system.cpu0.itb.walker.walkRequestOrigin_Requested::Inst            0                       # Table walker requests started/completed, data/inst
system.cpu0.itb.walker.walkRequestOrigin_Requested::total            0                       # Table walker requests started/completed, data/inst
system.cpu0.itb.walker.walkRequestOrigin_Completed::Data            0                       # Table walker requests started/completed, data/inst
system.cpu0.itb.walker.walkRequestOrigin_Completed::Inst            0                       # Table walker requests started/completed, data/inst
system.cpu0.itb.walker.walkRequestOrigin_Completed::total            0                       # Table walker requests started/completed, data/inst
system.cpu0.itb.walker.walkRequestOrigin::total            0                       # Table walker requests started/completed, data/inst
system.cpu0.itb.inst_hits                           0                       # ITB inst hits
system.cpu0.itb.inst_misses                         0                       # ITB inst misses
system.cpu0.itb.read_hits                           0                       # DTB read hits
system.cpu0.itb.read_misses                         0                       # DTB read misses
system.cpu0.itb.write_hits                          0                       # DTB write hits
system.cpu0.itb.write_misses                        0                       # DTB write misses
system.cpu0.itb.flush_tlb                           0                       # Number of times complete TLB was flushed
system.cpu0.itb.flush_tlb_mva                       0                       # Number of times TLB was flushed by MVA
system.cpu0.itb.flush_tlb_mva_asid                  0                       # Number of times TLB was flushed by MVA & ASID
system.cpu0.itb.flush_tlb_asid                      0                       # Number of times TLB was flushed by ASID
system.cpu0.itb.flush_entries                       0                       # Number of entries that have been flushed from TLB
system.cpu0.itb.align_faults                        0                       # Number of TLB faults due to alignment restrictions
system.cpu0.itb.prefetch_faults                     0                       # Number of TLB faults due to prefetch
system.cpu0.itb.domain_faults                       0                       # Number of TLB faults due to domain restrictions
system.cpu0.itb.perms_faults                        0                       # Number of TLB faults due to permissions restrictions
system.cpu0.itb.read_accesses                       0                       # DTB read accesses
system.cpu0.itb.write_accesses                      0                       # DTB write accesses
system.cpu0.itb.inst_accesses                       0                       # ITB inst accesses
system.cpu0.itb.hits                                0                       # DTB hits
system.cpu0.itb.misses                              0                       # DTB misses
system.cpu0.itb.accesses                            0                       # DTB accesses
system.cpu0.workload.num_syscalls              239984                       # Number of system calls
system.cpu0.pwrStateResidencyTicks::ON   143895880000                       # Cumulative time (in ticks) in various power states
system.cpu0.numCycles                       143895881                       # number of cpu cycles simulated
system.cpu0.numWorkItemsStarted                     0                       # number of work items this cpu started
system.cpu0.numWorkItemsCompleted                   0                       # number of work items this cpu completed
system.cpu0.fetch.icacheStallCycles          49669782                       # Number of cycles fetch is stalled on an Icache miss
system.cpu0.fetch.Insts                      98919444                       # Number of instructions fetch has processed
system.cpu0.fetch.Branches                   17639761                       # Number of branches that fetch encountered
system.cpu0.fetch.predictedBranches          11132910                       # Number of branches that fetch has predicted taken
system.cpu0.fetch.Cycles                     64638202                       # Number of cycles fetch has run and was not squashing or blocked
system.cpu0.fetch.SquashCycles                 886577                       # Number of cycles fetch has spent squashing
system.cpu0.fetch.MiscStallCycles                 304                       # Number of cycles fetch has spent waiting on interrupts, or bad addresses, or out of MSHRs
system.cpu0.fetch.PendingTrapStallCycles         2270                       # Number of stall cycles due to pending traps
system.cpu0.fetch.IcacheWaitRetryStallCycles           10                       # Number of stall cycles due to full MSHR
system.cpu0.fetch.CacheLines                 13812224                       # Number of cache lines fetched
system.cpu0.fetch.IcacheSquashes               167991                       # Number of outstanding Icache misses that were squashed
system.cpu0.fetch.rateDist::samples         114753856                       # Number of instructions fetched each cycle (Total)
system.cpu0.fetch.rateDist::mean             0.973457                       # Number of instructions fetched each cycle (Total)
system.cpu0.fetch.rateDist::stdev            0.957986                       # Number of instructions fetched each cycle (Total)
system.cpu0.fetch.rateDist::underflows              0      0.00%      0.00% # Number of instructions fetched each cycle (Total)
system.cpu0.fetch.rateDist::0                54220324     47.25%     47.25% # Number of instructions fetched each cycle (Total)
system.cpu0.fetch.rateDist::1                 9359124      8.16%     55.41% # Number of instructions fetched each cycle (Total)
system.cpu0.fetch.rateDist::2                51174408     44.59%    100.00% # Number of instructions fetched each cycle (Total)
system.cpu0.fetch.rateDist::overflows               0      0.00%    100.00% # Number of instructions fetched each cycle (Total)
system.cpu0.fetch.rateDist::min_value               0                       # Number of instructions fetched each cycle (Total)
system.cpu0.fetch.rateDist::max_value               2                       # Number of instructions fetched each cycle (Total)
system.cpu0.fetch.rateDist::total           114753856                       # Number of instructions fetched each cycle (Total)
system.cpu0.fetch.branchRate                 0.122587                       # Number of branch fetches per cycle
system.cpu0.fetch.rate                       0.687438                       # Number of inst fetches per cycle
system.cpu0.decode.IdleCycles                47309216                       # Number of cycles decode is idle
system.cpu0.decode.BlockedCycles              9835385                       # Number of cycles decode is blocked
system.cpu0.decode.RunCycles                 46783629                       # Number of cycles decode is running
system.cpu0.decode.UnblockCycles             10416896                       # Number of cycles decode is unblocking
system.cpu0.decode.SquashCycles                408730                       # Number of cycles decode is squashing
system.cpu0.decode.BranchResolved             4799188                       # Number of times decode resolved a branch
system.cpu0.decode.BranchMispred                34948                       # Number of times decode detected a branch misprediction
system.cpu0.decode.DecodedInsts             110493620                       # Number of instructions handled by decode
system.cpu0.decode.SquashedInsts                61419                       # Number of squashed instructions handled by decode
system.cpu0.rename.SquashCycles                408730                       # Number of cycles rename is squashing
system.cpu0.rename.IdleCycles                49591761                       # Number of cycles rename is idle
system.cpu0.rename.BlockCycles                 970229                       # Number of cycles rename is blocking
system.cpu0.rename.serializeStallCycles        374562                       # count of cycles rename stalled for serializing inst
system.cpu0.rename.RunCycles                 54885340                       # Number of cycles rename is running
system.cpu0.rename.UnblockCycles              8523234                       # Number of cycles rename is unblocking
system.cpu0.rename.RenamedInsts             110010904                       # Number of instructions processed by rename
system.cpu0.rename.IQFullEvents               6438168                       # Number of times rename has blocked due to IQ full
system.cpu0.rename.LQFullEvents                 64920                       # Number of times rename has blocked due to LQ full
system.cpu0.rename.SQFullEvents                  5206                       # Number of times rename has blocked due to SQ full
system.cpu0.rename.RenamedOperands          137567146                       # Number of destination operands rename has renamed
system.cpu0.rename.RenameLookups            507628137                       # Number of register rename lookups that rename has made
system.cpu0.rename.int_rename_lookups       140029417                       # Number of integer rename lookups
system.cpu0.rename.fp_rename_lookups               16                       # Number of floating rename lookups
system.cpu0.rename.CommittedMaps            123679264                       # Number of HB maps that are committed
system.cpu0.rename.UndoneMaps                13887882                       # Number of HB maps that are undone due to squashing
system.cpu0.rename.serializingInsts             22086                       # count of serializing insts renamed
system.cpu0.rename.tempSerializingInsts         10757                       # count of temporary serializing insts renamed
system.cpu0.rename.skidInsts                  9193744                       # count of insts added to the skid buffer
system.cpu0.memDep0.insertedLoads            14371696                       # Number of loads inserted to the mem dependence unit.
system.cpu0.memDep0.insertedStores            8994451                       # Number of stores inserted to the mem dependence unit.
system.cpu0.memDep0.conflictingLoads          4328153                       # Number of conflicting loads.
system.cpu0.memDep0.conflictingStores         1498496                       # Number of conflicting stores.
system.cpu0.iq.iqInstsAdded                 109042398                       # Number of instructions added to the IQ (excludes non-spec)
system.cpu0.iq.iqNonSpecInstsAdded              19935                       # Number of non-speculative instructions added to the IQ
system.cpu0.iq.iqInstsIssued                101870946                       # Number of instructions issued
system.cpu0.iq.iqSquashedInstsIssued          1138726                       # Number of squashed instructions issued
system.cpu0.iq.iqSquashedInstsExamined        8701547                       # Number of squashed instructions iterated over during squash; mainly for profiling
system.cpu0.iq.iqSquashedOperandsExamined     33448990                       # Number of squashed operands that are examined and possibly removed from graph
system.cpu0.iq.iqSquashedNonSpecRemoved           980                       # Number of squashed non-spec instructions that were removed
system.cpu0.iq.issued_per_cycle::samples    114753856                       # Number of insts issued each cycle
system.cpu0.iq.issued_per_cycle::mean        0.887734                       # Number of insts issued each cycle
system.cpu0.iq.issued_per_cycle::stdev       0.676218                       # Number of insts issued each cycle
system.cpu0.iq.issued_per_cycle::underflows            0      0.00%      0.00% # Number of insts issued each cycle
system.cpu0.iq.issued_per_cycle::0           33401374     29.11%     29.11% # Number of insts issued each cycle
system.cpu0.iq.issued_per_cycle::1           60834018     53.01%     82.12% # Number of insts issued each cycle
system.cpu0.iq.issued_per_cycle::2           20518464     17.88%    100.00% # Number of insts issued each cycle
system.cpu0.iq.issued_per_cycle::overflows            0      0.00%    100.00% # Number of insts issued each cycle
system.cpu0.iq.issued_per_cycle::min_value            0                       # Number of insts issued each cycle
system.cpu0.iq.issued_per_cycle::max_value            2                       # Number of insts issued each cycle
system.cpu0.iq.issued_per_cycle::total      114753856                       # Number of insts issued each cycle
system.cpu0.iq.fu_full::No_OpClass                  0      0.00%      0.00% # attempts to use FU when none available
system.cpu0.iq.fu_full::IntAlu               57597924     93.06%     93.06% # attempts to use FU when none available
system.cpu0.iq.fu_full::IntMult                     0      0.00%     93.06% # attempts to use FU when none available
system.cpu0.iq.fu_full::IntDiv                      0      0.00%     93.06% # attempts to use FU when none available
system.cpu0.iq.fu_full::FloatAdd                    0      0.00%     93.06% # attempts to use FU when none available
system.cpu0.iq.fu_full::FloatCmp                    0      0.00%     93.06% # attempts to use FU when none available
system.cpu0.iq.fu_full::FloatCvt                    0      0.00%     93.06% # attempts to use FU when none available
system.cpu0.iq.fu_full::FloatMult                   0      0.00%     93.06% # attempts to use FU when none available
system.cpu0.iq.fu_full::FloatMultAcc                0      0.00%     93.06% # attempts to use FU when none available
system.cpu0.iq.fu_full::FloatDiv                    0      0.00%     93.06% # attempts to use FU when none available
system.cpu0.iq.fu_full::FloatMisc                   0      0.00%     93.06% # attempts to use FU when none available
system.cpu0.iq.fu_full::FloatSqrt                   0      0.00%     93.06% # attempts to use FU when none available
system.cpu0.iq.fu_full::SimdAdd                     0      0.00%     93.06% # attempts to use FU when none available
system.cpu0.iq.fu_full::SimdAddAcc                  0      0.00%     93.06% # attempts to use FU when none available
system.cpu0.iq.fu_full::SimdAlu                     0      0.00%     93.06% # attempts to use FU when none available
system.cpu0.iq.fu_full::SimdCmp                     0      0.00%     93.06% # attempts to use FU when none available
system.cpu0.iq.fu_full::SimdCvt                     0      0.00%     93.06% # attempts to use FU when none available
system.cpu0.iq.fu_full::SimdMisc                    0      0.00%     93.06% # attempts to use FU when none available
system.cpu0.iq.fu_full::SimdMult                    0      0.00%     93.06% # attempts to use FU when none available
system.cpu0.iq.fu_full::SimdMultAcc                 0      0.00%     93.06% # attempts to use FU when none available
system.cpu0.iq.fu_full::SimdShift                   0      0.00%     93.06% # attempts to use FU when none available
system.cpu0.iq.fu_full::SimdShiftAcc                0      0.00%     93.06% # attempts to use FU when none available
system.cpu0.iq.fu_full::SimdSqrt                    0      0.00%     93.06% # attempts to use FU when none available
system.cpu0.iq.fu_full::SimdFloatAdd                0      0.00%     93.06% # attempts to use FU when none available
system.cpu0.iq.fu_full::SimdFloatAlu                0      0.00%     93.06% # attempts to use FU when none available
system.cpu0.iq.fu_full::SimdFloatCmp                0      0.00%     93.06% # attempts to use FU when none available
system.cpu0.iq.fu_full::SimdFloatCvt                0      0.00%     93.06% # attempts to use FU when none available
system.cpu0.iq.fu_full::SimdFloatDiv                0      0.00%     93.06% # attempts to use FU when none available
system.cpu0.iq.fu_full::SimdFloatMisc               0      0.00%     93.06% # attempts to use FU when none available
system.cpu0.iq.fu_full::SimdFloatMult               0      0.00%     93.06% # attempts to use FU when none available
system.cpu0.iq.fu_full::SimdFloatMultAcc            0      0.00%     93.06% # attempts to use FU when none available
system.cpu0.iq.fu_full::SimdFloatSqrt               0      0.00%     93.06% # attempts to use FU when none available
system.cpu0.iq.fu_full::MemRead               2604000      4.21%     97.27% # attempts to use FU when none available
system.cpu0.iq.fu_full::MemWrite              1692409      2.73%    100.00% # attempts to use FU when none available
system.cpu0.iq.fu_full::FloatMemRead                0      0.00%    100.00% # attempts to use FU when none available
system.cpu0.iq.fu_full::FloatMemWrite               0      0.00%    100.00% # attempts to use FU when none available
system.cpu0.iq.fu_full::IprAccess                   0      0.00%    100.00% # attempts to use FU when none available
system.cpu0.iq.fu_full::InstPrefetch                0      0.00%    100.00% # attempts to use FU when none available
system.cpu0.iq.FU_type_0::No_OpClass                0      0.00%      0.00% # Type of FU issued
system.cpu0.iq.FU_type_0::IntAlu             78573332     77.13%     77.13% # Type of FU issued
system.cpu0.iq.FU_type_0::IntMult              523254      0.51%     77.64% # Type of FU issued
system.cpu0.iq.FU_type_0::IntDiv                    0      0.00%     77.64% # Type of FU issued
system.cpu0.iq.FU_type_0::FloatAdd                  0      0.00%     77.64% # Type of FU issued
system.cpu0.iq.FU_type_0::FloatCmp                  0      0.00%     77.64% # Type of FU issued
system.cpu0.iq.FU_type_0::FloatCvt                  0      0.00%     77.64% # Type of FU issued
system.cpu0.iq.FU_type_0::FloatMult                 0      0.00%     77.64% # Type of FU issued
system.cpu0.iq.FU_type_0::FloatMultAcc              0      0.00%     77.64% # Type of FU issued
system.cpu0.iq.FU_type_0::FloatDiv                  0      0.00%     77.64% # Type of FU issued
system.cpu0.iq.FU_type_0::FloatMisc                 0      0.00%     77.64% # Type of FU issued
system.cpu0.iq.FU_type_0::FloatSqrt                 0      0.00%     77.64% # Type of FU issued
system.cpu0.iq.FU_type_0::SimdAdd                   0      0.00%     77.64% # Type of FU issued
system.cpu0.iq.FU_type_0::SimdAddAcc                0      0.00%     77.64% # Type of FU issued
system.cpu0.iq.FU_type_0::SimdAlu                   0      0.00%     77.64% # Type of FU issued
system.cpu0.iq.FU_type_0::SimdCmp                   0      0.00%     77.64% # Type of FU issued
system.cpu0.iq.FU_type_0::SimdCvt                   0      0.00%     77.64% # Type of FU issued
system.cpu0.iq.FU_type_0::SimdMisc                  0      0.00%     77.64% # Type of FU issued
system.cpu0.iq.FU_type_0::SimdMult                  0      0.00%     77.64% # Type of FU issued
system.cpu0.iq.FU_type_0::SimdMultAcc               0      0.00%     77.64% # Type of FU issued
system.cpu0.iq.FU_type_0::SimdShift                 0      0.00%     77.64% # Type of FU issued
system.cpu0.iq.FU_type_0::SimdShiftAcc              0      0.00%     77.64% # Type of FU issued
system.cpu0.iq.FU_type_0::SimdSqrt                  0      0.00%     77.64% # Type of FU issued
system.cpu0.iq.FU_type_0::SimdFloatAdd              0      0.00%     77.64% # Type of FU issued
system.cpu0.iq.FU_type_0::SimdFloatAlu              0      0.00%     77.64% # Type of FU issued
system.cpu0.iq.FU_type_0::SimdFloatCmp              0      0.00%     77.64% # Type of FU issued
system.cpu0.iq.FU_type_0::SimdFloatCvt              0      0.00%     77.64% # Type of FU issued
system.cpu0.iq.FU_type_0::SimdFloatDiv              0      0.00%     77.64% # Type of FU issued
system.cpu0.iq.FU_type_0::SimdFloatMisc         11308      0.01%     77.66% # Type of FU issued
system.cpu0.iq.FU_type_0::SimdFloatMult             0      0.00%     77.66% # Type of FU issued
system.cpu0.iq.FU_type_0::SimdFloatMultAcc            0      0.00%     77.66% # Type of FU issued
system.cpu0.iq.FU_type_0::SimdFloatSqrt             0      0.00%     77.66% # Type of FU issued
system.cpu0.iq.FU_type_0::MemRead            14000784     13.74%     91.40% # Type of FU issued
system.cpu0.iq.FU_type_0::MemWrite            8762252      8.60%    100.00% # Type of FU issued
system.cpu0.iq.FU_type_0::FloatMemRead              0      0.00%    100.00% # Type of FU issued
system.cpu0.iq.FU_type_0::FloatMemWrite            16      0.00%    100.00% # Type of FU issued
system.cpu0.iq.FU_type_0::IprAccess                 0      0.00%    100.00% # Type of FU issued
system.cpu0.iq.FU_type_0::InstPrefetch              0      0.00%    100.00% # Type of FU issued
system.cpu0.iq.FU_type_0::total             101870946                       # Type of FU issued
system.cpu0.iq.rate                          0.707949                       # Inst issue rate
system.cpu0.iq.fu_busy_cnt                   61894333                       # FU busy when requested
system.cpu0.iq.fu_busy_rate                  0.607576                       # FU busy rate (busy events/executed inst)
system.cpu0.iq.int_inst_queue_reads         381528775                       # Number of integer instruction queue reads
system.cpu0.iq.int_inst_queue_writes        117765368                       # Number of integer instruction queue writes
system.cpu0.iq.int_inst_queue_wakeup_accesses    101583577                       # Number of integer instruction queue wakeup accesses
system.cpu0.iq.fp_inst_queue_reads                 32                       # Number of floating instruction queue reads
system.cpu0.iq.fp_inst_queue_writes                16                       # Number of floating instruction queue writes
system.cpu0.iq.fp_inst_queue_wakeup_accesses           16                       # Number of floating instruction queue wakeup accesses
system.cpu0.iq.int_alu_accesses             163765263                       # Number of integer alu accesses
system.cpu0.iq.fp_alu_accesses                     16                       # Number of floating point alu accesses
system.cpu0.iew.lsq.thread0.forwLoads         1850533                       # Number of loads that had data forwarded from stores
system.cpu0.iew.lsq.thread0.invAddrLoads            0                       # Number of loads ignored due to an invalid address
system.cpu0.iew.lsq.thread0.squashedLoads       810353                       # Number of loads squashed
system.cpu0.iew.lsq.thread0.ignoredResponses          350                       # Number of memory responses ignored because the instruction is squashed
system.cpu0.iew.lsq.thread0.memOrderViolation         1577                       # Number of memory ordering violations
system.cpu0.iew.lsq.thread0.squashedStores       335164                       # Number of stores squashed
system.cpu0.iew.lsq.thread0.invAddrSwpfs            0                       # Number of software prefetches ignored due to an invalid address
system.cpu0.iew.lsq.thread0.blockedLoads            0                       # Number of blocked loads due to partial load-store forwarding
system.cpu0.iew.lsq.thread0.rescheduledLoads        63674                       # Number of loads that were rescheduled
system.cpu0.iew.lsq.thread0.cacheBlocked         3073                       # Number of times an access to memory failed due to the cache being blocked
system.cpu0.iew.iewIdleCycles                       0                       # Number of cycles IEW is idle
system.cpu0.iew.iewSquashCycles                408730                       # Number of cycles IEW is squashing
system.cpu0.iew.iewBlockCycles                 913434                       # Number of cycles IEW is blocking
system.cpu0.iew.iewUnblockCycles                50701                       # Number of cycles IEW is unblocking
system.cpu0.iew.iewDispatchedInsts          109062602                       # Number of instructions dispatched to IQ
system.cpu0.iew.iewDispSquashedInsts            87489                       # Number of squashed instructions skipped by dispatch
system.cpu0.iew.iewDispLoadInsts             14371696                       # Number of dispatched load instructions
system.cpu0.iew.iewDispStoreInsts             8994451                       # Number of dispatched store instructions
system.cpu0.iew.iewDispNonSpecInsts             10544                       # Number of dispatched non-speculative instructions
system.cpu0.iew.iewIQFullEvents                  2191                       # Number of times the IQ has become full, causing a stall
system.cpu0.iew.iewLSQFullEvents                20454                       # Number of times the LSQ has become full, causing a stall
system.cpu0.iew.memOrderViolationEvents          1577                       # Number of memory order violations
system.cpu0.iew.predictedTakenIncorrect        215239                       # Number of branches that were predicted taken incorrectly
system.cpu0.iew.predictedNotTakenIncorrect       210716                       # Number of branches that were predicted not taken incorrectly
system.cpu0.iew.branchMispredicts              425955                       # Number of branch mispredicts detected at execute
system.cpu0.iew.iewExecutedInsts            101721414                       # Number of executed instructions
system.cpu0.iew.iewExecLoadInsts             13964779                       # Number of load instructions executed
system.cpu0.iew.iewExecSquashedInsts           149532                       # Number of squashed instructions skipped in execute
system.cpu0.iew.exec_swp                            0                       # number of swp insts executed
system.cpu0.iew.exec_nop                          269                       # number of nop insts executed
system.cpu0.iew.exec_refs                    22707750                       # number of memory reference insts executed
system.cpu0.iew.exec_branches                15871096                       # Number of branches executed
system.cpu0.iew.exec_stores                   8742971                       # Number of stores executed
system.cpu0.iew.exec_rate                    0.706910                       # Inst execution rate
system.cpu0.iew.wb_sent                     101602233                       # cumulative count of insts sent to commit
system.cpu0.iew.wb_count                    101583593                       # cumulative count of insts written-back
system.cpu0.iew.wb_producers                 70654746                       # num instructions producing a value
system.cpu0.iew.wb_consumers                160619152                       # num instructions consuming a value
system.cpu0.iew.wb_rate                      0.705952                       # insts written-back per cycle
system.cpu0.iew.wb_fanout                    0.439890                       # average fanout of values written-back
system.cpu0.commit.commitSquashedInsts        8701861                       # The number of squashed insts skipped by commit
system.cpu0.commit.commitNonSpecStalls          18955                       # The number of times commit has been forced to stall to communicate backwards
system.cpu0.commit.branchMispredicts           404526                       # The number of times a branch was mispredicted
system.cpu0.commit.committed_per_cycle::samples    113477112                       # Number of insts commited each cycle
system.cpu0.commit.committed_per_cycle::mean     0.884414                       # Number of insts commited each cycle
system.cpu0.commit.committed_per_cycle::stdev     0.998386                       # Number of insts commited each cycle
system.cpu0.commit.committed_per_cycle::underflows            0      0.00%      0.00% # Number of insts commited each cycle
system.cpu0.commit.committed_per_cycle::0     37987501     33.48%     33.48% # Number of insts commited each cycle
system.cpu0.commit.committed_per_cycle::1     62341171     54.94%     88.41% # Number of insts commited each cycle
system.cpu0.commit.committed_per_cycle::2      8054519      7.10%     95.51% # Number of insts commited each cycle
system.cpu0.commit.committed_per_cycle::3      2509121      2.21%     97.72% # Number of insts commited each cycle
system.cpu0.commit.committed_per_cycle::4       948973      0.84%     98.56% # Number of insts commited each cycle
system.cpu0.commit.committed_per_cycle::5       233485      0.21%     98.76% # Number of insts commited each cycle
system.cpu0.commit.committed_per_cycle::6       471135      0.42%     99.18% # Number of insts commited each cycle
system.cpu0.commit.committed_per_cycle::7       856569      0.75%     99.93% # Number of insts commited each cycle
system.cpu0.commit.committed_per_cycle::8        74638      0.07%    100.00% # Number of insts commited each cycle
system.cpu0.commit.committed_per_cycle::overflows            0      0.00%    100.00% # Number of insts commited each cycle
system.cpu0.commit.committed_per_cycle::min_value            0                       # Number of insts commited each cycle
system.cpu0.commit.committed_per_cycle::max_value            8                       # Number of insts commited each cycle
system.cpu0.commit.committed_per_cycle::total    113477112                       # Number of insts commited each cycle
system.cpu0.commit.committedInsts            88790700                       # Number of instructions committed
system.cpu0.commit.committedOps             100360786                       # Number of ops (including micro ops) committed
system.cpu0.commit.swp_count                        0                       # Number of s/w prefetches committed
system.cpu0.commit.refs                      22220630                       # Number of memory references committed
system.cpu0.commit.loads                     13561343                       # Number of loads committed
system.cpu0.commit.membars                       9251                       # Number of memory barriers committed
system.cpu0.commit.branches                  15750287                       # Number of branches committed
system.cpu0.commit.fp_insts                        16                       # Number of committed floating point instructions.
system.cpu0.commit.int_insts                 90761733                       # Number of committed integer instructions.
system.cpu0.commit.function_calls             2565008                       # Number of function calls committed.
system.cpu0.commit.op_class_0::No_OpClass            0      0.00%      0.00% # Class of committed instruction
system.cpu0.commit.op_class_0::IntAlu        77623700     77.34%     77.34% # Class of committed instruction
system.cpu0.commit.op_class_0::IntMult         505148      0.50%     77.85% # Class of committed instruction
system.cpu0.commit.op_class_0::IntDiv               0      0.00%     77.85% # Class of committed instruction
system.cpu0.commit.op_class_0::FloatAdd             0      0.00%     77.85% # Class of committed instruction
system.cpu0.commit.op_class_0::FloatCmp             0      0.00%     77.85% # Class of committed instruction
system.cpu0.commit.op_class_0::FloatCvt             0      0.00%     77.85% # Class of committed instruction
system.cpu0.commit.op_class_0::FloatMult            0      0.00%     77.85% # Class of committed instruction
system.cpu0.commit.op_class_0::FloatMultAcc            0      0.00%     77.85% # Class of committed instruction
system.cpu0.commit.op_class_0::FloatDiv             0      0.00%     77.85% # Class of committed instruction
system.cpu0.commit.op_class_0::FloatMisc            0      0.00%     77.85% # Class of committed instruction
system.cpu0.commit.op_class_0::FloatSqrt            0      0.00%     77.85% # Class of committed instruction
system.cpu0.commit.op_class_0::SimdAdd              0      0.00%     77.85% # Class of committed instruction
system.cpu0.commit.op_class_0::SimdAddAcc            0      0.00%     77.85% # Class of committed instruction
system.cpu0.commit.op_class_0::SimdAlu              0      0.00%     77.85% # Class of committed instruction
system.cpu0.commit.op_class_0::SimdCmp              0      0.00%     77.85% # Class of committed instruction
system.cpu0.commit.op_class_0::SimdCvt              0      0.00%     77.85% # Class of committed instruction
system.cpu0.commit.op_class_0::SimdMisc             0      0.00%     77.85% # Class of committed instruction
system.cpu0.commit.op_class_0::SimdMult             0      0.00%     77.85% # Class of committed instruction
system.cpu0.commit.op_class_0::SimdMultAcc            0      0.00%     77.85% # Class of committed instruction
system.cpu0.commit.op_class_0::SimdShift            0      0.00%     77.85% # Class of committed instruction
system.cpu0.commit.op_class_0::SimdShiftAcc            0      0.00%     77.85% # Class of committed instruction
system.cpu0.commit.op_class_0::SimdSqrt             0      0.00%     77.85% # Class of committed instruction
system.cpu0.commit.op_class_0::SimdFloatAdd            0      0.00%     77.85% # Class of committed instruction
system.cpu0.commit.op_class_0::SimdFloatAlu            0      0.00%     77.85% # Class of committed instruction
system.cpu0.commit.op_class_0::SimdFloatCmp            0      0.00%     77.85% # Class of committed instruction
system.cpu0.commit.op_class_0::SimdFloatCvt            0      0.00%     77.85% # Class of committed instruction
system.cpu0.commit.op_class_0::SimdFloatDiv            0      0.00%     77.85% # Class of committed instruction
system.cpu0.commit.op_class_0::SimdFloatMisc        11308      0.01%     77.86% # Class of committed instruction
system.cpu0.commit.op_class_0::SimdFloatMult            0      0.00%     77.86% # Class of committed instruction
system.cpu0.commit.op_class_0::SimdFloatMultAcc            0      0.00%     77.86% # Class of committed instruction
system.cpu0.commit.op_class_0::SimdFloatSqrt            0      0.00%     77.86% # Class of committed instruction
system.cpu0.commit.op_class_0::MemRead       13561343     13.51%     91.37% # Class of committed instruction
system.cpu0.commit.op_class_0::MemWrite       8659271      8.63%    100.00% # Class of committed instruction
system.cpu0.commit.op_class_0::FloatMemRead            0      0.00%    100.00% # Class of committed instruction
system.cpu0.commit.op_class_0::FloatMemWrite           16      0.00%    100.00% # Class of committed instruction
system.cpu0.commit.op_class_0::IprAccess            0      0.00%    100.00% # Class of committed instruction
system.cpu0.commit.op_class_0::InstPrefetch            0      0.00%    100.00% # Class of committed instruction
system.cpu0.commit.op_class_0::total        100360786                       # Class of committed instruction
system.cpu0.commit.bw_lim_events                74638                       # number cycles where commit BW limit reached
system.cpu0.rob.rob_reads                   222428494                       # The number of ROB reads
system.cpu0.rob.rob_writes                  219402163                       # The number of ROB writes
system.cpu0.timesIdled                        1406630                       # Number of times that the entire CPU went into an idle state and unscheduled itself
system.cpu0.idleCycles                       29142025                       # Total number of cycles that the CPU has spent unscheduled due to idling
system.cpu0.committedInsts                   88790700                       # Number of Instructions Simulated
system.cpu0.committedOps                    100360786                       # Number of Ops (including micro ops) Simulated
system.cpu0.cpi                              1.620619                       # CPI: Cycles Per Instruction
system.cpu0.cpi_total                        1.620619                       # CPI: Total CPI of All Threads
system.cpu0.ipc                              0.617048                       # IPC: Instructions Per Cycle
system.cpu0.ipc_total                        0.617048                       # IPC: Total IPC of All Threads
system.cpu0.int_regfile_reads               119543571                       # number of integer regfile reads
system.cpu0.int_regfile_writes               70662132                       # number of integer regfile writes
system.cpu0.fp_regfile_reads                     1136                       # number of floating regfile reads
system.cpu0.cc_regfile_reads                349885252                       # number of cc regfile reads
system.cpu0.cc_regfile_writes                52869454                       # number of cc regfile writes
system.cpu0.misc_regfile_reads               22640603                       # number of misc regfile reads
system.cpu0.misc_regfile_writes                 16877                       # number of misc regfile writes
system.cpu0.dcache.tags.pwrStateResidencyTicks::UNDEFINED 143895880000                       # Cumulative time (in ticks) in various power states
system.cpu0.dcache.tags.replacements            56168                       # number of replacements
system.cpu0.dcache.tags.tagsinuse           62.137421                       # Cycle average of tags in use
system.cpu0.dcache.tags.total_refs           20002091                       # Total number of references to valid blocks.
system.cpu0.dcache.tags.sampled_refs            56232                       # Sample count of references to valid blocks.
system.cpu0.dcache.tags.avg_refs           355.706555                       # Average number of references to valid blocks.
system.cpu0.dcache.tags.warmup_cycle          9621000                       # Cycle when the warmup percentage was hit.
system.cpu0.dcache.tags.occ_blocks::cpu0.data    62.137421                       # Average occupied blocks per requestor
system.cpu0.dcache.tags.occ_percent::cpu0.data     0.970897                       # Average percentage of cache occupancy
system.cpu0.dcache.tags.occ_percent::total     0.970897                       # Average percentage of cache occupancy
system.cpu0.dcache.tags.occ_task_id_blocks::1024           64                       # Occupied blocks per task id
system.cpu0.dcache.tags.age_task_id_blocks_1024::0           37                       # Occupied blocks per task id
system.cpu0.dcache.tags.age_task_id_blocks_1024::1            5                       # Occupied blocks per task id
system.cpu0.dcache.tags.age_task_id_blocks_1024::2           22                       # Occupied blocks per task id
system.cpu0.dcache.tags.occ_task_id_percent::1024            1                       # Percentage of cache occupancy per task id
system.cpu0.dcache.tags.tag_accesses        160921621                       # Number of tag accesses
system.cpu0.dcache.tags.data_accesses       160921621                       # Number of data accesses
system.cpu0.dcache.pwrStateResidencyTicks::UNDEFINED 143895880000                       # Cumulative time (in ticks) in various power states
system.cpu0.dcache.ReadReq_hits::cpu0.data     11524426                       # number of ReadReq hits
system.cpu0.dcache.ReadReq_hits::total       11524426                       # number of ReadReq hits
system.cpu0.dcache.WriteReq_hits::cpu0.data      8462012                       # number of WriteReq hits
system.cpu0.dcache.WriteReq_hits::total       8462012                       # number of WriteReq hits
system.cpu0.dcache.LoadLockedReq_hits::cpu0.data         6272                       # number of LoadLockedReq hits
system.cpu0.dcache.LoadLockedReq_hits::total         6272                       # number of LoadLockedReq hits
system.cpu0.dcache.StoreCondReq_hits::cpu0.data         4337                       # number of StoreCondReq hits
system.cpu0.dcache.StoreCondReq_hits::total         4337                       # number of StoreCondReq hits
system.cpu0.dcache.demand_hits::cpu0.data     19986438                       # number of demand (read+write) hits
system.cpu0.dcache.demand_hits::total        19986438                       # number of demand (read+write) hits
system.cpu0.dcache.overall_hits::cpu0.data     19986438                       # number of overall hits
system.cpu0.dcache.overall_hits::total       19986438                       # number of overall hits
system.cpu0.dcache.ReadReq_misses::cpu0.data        66117                       # number of ReadReq misses
system.cpu0.dcache.ReadReq_misses::total        66117                       # number of ReadReq misses
system.cpu0.dcache.WriteReq_misses::cpu0.data        41325                       # number of WriteReq misses
system.cpu0.dcache.WriteReq_misses::total        41325                       # number of WriteReq misses
system.cpu0.dcache.LoadLockedReq_misses::cpu0.data          856                       # number of LoadLockedReq misses
system.cpu0.dcache.LoadLockedReq_misses::total          856                       # number of LoadLockedReq misses
system.cpu0.dcache.StoreCondReq_misses::cpu0.data         2175                       # number of StoreCondReq misses
system.cpu0.dcache.StoreCondReq_misses::total         2175                       # number of StoreCondReq misses
system.cpu0.dcache.demand_misses::cpu0.data       107442                       # number of demand (read+write) misses
system.cpu0.dcache.demand_misses::total        107442                       # number of demand (read+write) misses
system.cpu0.dcache.overall_misses::cpu0.data       107442                       # number of overall misses
system.cpu0.dcache.overall_misses::total       107442                       # number of overall misses
system.cpu0.dcache.ReadReq_miss_latency::cpu0.data   2676552000                       # number of ReadReq miss cycles
system.cpu0.dcache.ReadReq_miss_latency::total   2676552000                       # number of ReadReq miss cycles
system.cpu0.dcache.WriteReq_miss_latency::cpu0.data   1665569720                       # number of WriteReq miss cycles
system.cpu0.dcache.WriteReq_miss_latency::total   1665569720                       # number of WriteReq miss cycles
system.cpu0.dcache.LoadLockedReq_miss_latency::cpu0.data     17246000                       # number of LoadLockedReq miss cycles
system.cpu0.dcache.LoadLockedReq_miss_latency::total     17246000                       # number of LoadLockedReq miss cycles
system.cpu0.dcache.StoreCondReq_miss_latency::cpu0.data     41186000                       # number of StoreCondReq miss cycles
system.cpu0.dcache.StoreCondReq_miss_latency::total     41186000                       # number of StoreCondReq miss cycles
system.cpu0.dcache.StoreCondFailReq_miss_latency::cpu0.data      4562000                       # number of StoreCondFailReq miss cycles
system.cpu0.dcache.StoreCondFailReq_miss_latency::total      4562000                       # number of StoreCondFailReq miss cycles
system.cpu0.dcache.demand_miss_latency::cpu0.data   4342121720                       # number of demand (read+write) miss cycles
system.cpu0.dcache.demand_miss_latency::total   4342121720                       # number of demand (read+write) miss cycles
system.cpu0.dcache.overall_miss_latency::cpu0.data   4342121720                       # number of overall miss cycles
system.cpu0.dcache.overall_miss_latency::total   4342121720                       # number of overall miss cycles
system.cpu0.dcache.ReadReq_accesses::cpu0.data     11590543                       # number of ReadReq accesses(hits+misses)
system.cpu0.dcache.ReadReq_accesses::total     11590543                       # number of ReadReq accesses(hits+misses)
system.cpu0.dcache.WriteReq_accesses::cpu0.data      8503337                       # number of WriteReq accesses(hits+misses)
system.cpu0.dcache.WriteReq_accesses::total      8503337                       # number of WriteReq accesses(hits+misses)
system.cpu0.dcache.LoadLockedReq_accesses::cpu0.data         7128                       # number of LoadLockedReq accesses(hits+misses)
system.cpu0.dcache.LoadLockedReq_accesses::total         7128                       # number of LoadLockedReq accesses(hits+misses)
system.cpu0.dcache.StoreCondReq_accesses::cpu0.data         6512                       # number of StoreCondReq accesses(hits+misses)
system.cpu0.dcache.StoreCondReq_accesses::total         6512                       # number of StoreCondReq accesses(hits+misses)
system.cpu0.dcache.demand_accesses::cpu0.data     20093880                       # number of demand (read+write) accesses
system.cpu0.dcache.demand_accesses::total     20093880                       # number of demand (read+write) accesses
system.cpu0.dcache.overall_accesses::cpu0.data     20093880                       # number of overall (read+write) accesses
system.cpu0.dcache.overall_accesses::total     20093880                       # number of overall (read+write) accesses
system.cpu0.dcache.ReadReq_miss_rate::cpu0.data     0.005704                       # miss rate for ReadReq accesses
system.cpu0.dcache.ReadReq_miss_rate::total     0.005704                       # miss rate for ReadReq accesses
system.cpu0.dcache.WriteReq_miss_rate::cpu0.data     0.004860                       # miss rate for WriteReq accesses
system.cpu0.dcache.WriteReq_miss_rate::total     0.004860                       # miss rate for WriteReq accesses
system.cpu0.dcache.LoadLockedReq_miss_rate::cpu0.data     0.120090                       # miss rate for LoadLockedReq accesses
system.cpu0.dcache.LoadLockedReq_miss_rate::total     0.120090                       # miss rate for LoadLockedReq accesses
system.cpu0.dcache.StoreCondReq_miss_rate::cpu0.data     0.333999                       # miss rate for StoreCondReq accesses
system.cpu0.dcache.StoreCondReq_miss_rate::total     0.333999                       # miss rate for StoreCondReq accesses
system.cpu0.dcache.demand_miss_rate::cpu0.data     0.005347                       # miss rate for demand accesses
system.cpu0.dcache.demand_miss_rate::total     0.005347                       # miss rate for demand accesses
system.cpu0.dcache.overall_miss_rate::cpu0.data     0.005347                       # miss rate for overall accesses
system.cpu0.dcache.overall_miss_rate::total     0.005347                       # miss rate for overall accesses
system.cpu0.dcache.ReadReq_avg_miss_latency::cpu0.data 40482.054540                       # average ReadReq miss latency
system.cpu0.dcache.ReadReq_avg_miss_latency::total 40482.054540                       # average ReadReq miss latency
system.cpu0.dcache.WriteReq_avg_miss_latency::cpu0.data 40304.167453                       # average WriteReq miss latency
system.cpu0.dcache.WriteReq_avg_miss_latency::total 40304.167453                       # average WriteReq miss latency
system.cpu0.dcache.LoadLockedReq_avg_miss_latency::cpu0.data 20147.196262                       # average LoadLockedReq miss latency
system.cpu0.dcache.LoadLockedReq_avg_miss_latency::total 20147.196262                       # average LoadLockedReq miss latency
system.cpu0.dcache.StoreCondReq_avg_miss_latency::cpu0.data 18936.091954                       # average StoreCondReq miss latency
system.cpu0.dcache.StoreCondReq_avg_miss_latency::total 18936.091954                       # average StoreCondReq miss latency
system.cpu0.dcache.StoreCondFailReq_avg_miss_latency::cpu0.data          inf                       # average StoreCondFailReq miss latency
system.cpu0.dcache.StoreCondFailReq_avg_miss_latency::total          inf                       # average StoreCondFailReq miss latency
system.cpu0.dcache.demand_avg_miss_latency::cpu0.data 40413.634519                       # average overall miss latency
system.cpu0.dcache.demand_avg_miss_latency::total 40413.634519                       # average overall miss latency
system.cpu0.dcache.overall_avg_miss_latency::cpu0.data 40413.634519                       # average overall miss latency
system.cpu0.dcache.overall_avg_miss_latency::total 40413.634519                       # average overall miss latency
system.cpu0.dcache.blocked_cycles::no_mshrs        19341                       # number of cycles access was blocked
system.cpu0.dcache.blocked_cycles::no_targets            0                       # number of cycles access was blocked
system.cpu0.dcache.blocked::no_mshrs             1186                       # number of cycles access was blocked
system.cpu0.dcache.blocked::no_targets              0                       # number of cycles access was blocked
system.cpu0.dcache.avg_blocked_cycles::no_mshrs    16.307757                       # average number of cycles each access was blocked
system.cpu0.dcache.avg_blocked_cycles::no_targets          nan                       # average number of cycles each access was blocked
system.cpu0.dcache.writebacks::writebacks        20895                       # number of writebacks
system.cpu0.dcache.writebacks::total            20895                       # number of writebacks
system.cpu0.dcache.ReadReq_mshr_hits::cpu0.data        23747                       # number of ReadReq MSHR hits
system.cpu0.dcache.ReadReq_mshr_hits::total        23747                       # number of ReadReq MSHR hits
system.cpu0.dcache.WriteReq_mshr_hits::cpu0.data        20852                       # number of WriteReq MSHR hits
system.cpu0.dcache.WriteReq_mshr_hits::total        20852                       # number of WriteReq MSHR hits
system.cpu0.dcache.LoadLockedReq_mshr_hits::cpu0.data          390                       # number of LoadLockedReq MSHR hits
system.cpu0.dcache.LoadLockedReq_mshr_hits::total          390                       # number of LoadLockedReq MSHR hits
system.cpu0.dcache.demand_mshr_hits::cpu0.data        44599                       # number of demand (read+write) MSHR hits
system.cpu0.dcache.demand_mshr_hits::total        44599                       # number of demand (read+write) MSHR hits
system.cpu0.dcache.overall_mshr_hits::cpu0.data        44599                       # number of overall MSHR hits
system.cpu0.dcache.overall_mshr_hits::total        44599                       # number of overall MSHR hits
system.cpu0.dcache.ReadReq_mshr_misses::cpu0.data        42370                       # number of ReadReq MSHR misses
system.cpu0.dcache.ReadReq_mshr_misses::total        42370                       # number of ReadReq MSHR misses
system.cpu0.dcache.WriteReq_mshr_misses::cpu0.data        20473                       # number of WriteReq MSHR misses
system.cpu0.dcache.WriteReq_mshr_misses::total        20473                       # number of WriteReq MSHR misses
system.cpu0.dcache.LoadLockedReq_mshr_misses::cpu0.data          466                       # number of LoadLockedReq MSHR misses
system.cpu0.dcache.LoadLockedReq_mshr_misses::total          466                       # number of LoadLockedReq MSHR misses
system.cpu0.dcache.StoreCondReq_mshr_misses::cpu0.data         2175                       # number of StoreCondReq MSHR misses
system.cpu0.dcache.StoreCondReq_mshr_misses::total         2175                       # number of StoreCondReq MSHR misses
system.cpu0.dcache.demand_mshr_misses::cpu0.data        62843                       # number of demand (read+write) MSHR misses
system.cpu0.dcache.demand_mshr_misses::total        62843                       # number of demand (read+write) MSHR misses
system.cpu0.dcache.overall_mshr_misses::cpu0.data        62843                       # number of overall MSHR misses
system.cpu0.dcache.overall_mshr_misses::total        62843                       # number of overall MSHR misses
system.cpu0.dcache.ReadReq_mshr_miss_latency::cpu0.data   1810733002                       # number of ReadReq MSHR miss cycles
system.cpu0.dcache.ReadReq_mshr_miss_latency::total   1810733002                       # number of ReadReq MSHR miss cycles
system.cpu0.dcache.WriteReq_mshr_miss_latency::cpu0.data    862183449                       # number of WriteReq MSHR miss cycles
system.cpu0.dcache.WriteReq_mshr_miss_latency::total    862183449                       # number of WriteReq MSHR miss cycles
system.cpu0.dcache.LoadLockedReq_mshr_miss_latency::cpu0.data      9762000                       # number of LoadLockedReq MSHR miss cycles
system.cpu0.dcache.LoadLockedReq_mshr_miss_latency::total      9762000                       # number of LoadLockedReq MSHR miss cycles
system.cpu0.dcache.StoreCondReq_mshr_miss_latency::cpu0.data     37089986                       # number of StoreCondReq MSHR miss cycles
system.cpu0.dcache.StoreCondReq_mshr_miss_latency::total     37089986                       # number of StoreCondReq MSHR miss cycles
system.cpu0.dcache.StoreCondFailReq_mshr_miss_latency::cpu0.data      4308000                       # number of StoreCondFailReq MSHR miss cycles
system.cpu0.dcache.StoreCondFailReq_mshr_miss_latency::total      4308000                       # number of StoreCondFailReq MSHR miss cycles
system.cpu0.dcache.demand_mshr_miss_latency::cpu0.data   2672916451                       # number of demand (read+write) MSHR miss cycles
system.cpu0.dcache.demand_mshr_miss_latency::total   2672916451                       # number of demand (read+write) MSHR miss cycles
system.cpu0.dcache.overall_mshr_miss_latency::cpu0.data   2672916451                       # number of overall MSHR miss cycles
system.cpu0.dcache.overall_mshr_miss_latency::total   2672916451                       # number of overall MSHR miss cycles
[...]
system.cpu7.icache.ReadReq_avg_miss_latency::cpu7.inst 44944.677005                       # average ReadReq miss latency
system.cpu7.icache.ReadReq_avg_miss_latency::total 44944.677005                       # average ReadReq miss latency
system.cpu7.icache.demand_avg_miss_latency::cpu7.inst 44944.677005                       # average overall miss latency
system.cpu7.icache.demand_avg_miss_latency::total 44944.677005                       # average overall miss latency
system.cpu7.icache.overall_avg_miss_latency::cpu7.inst 44944.677005                       # average overall miss latency
system.cpu7.icache.overall_avg_miss_latency::total 44944.677005                       # average overall miss latency
system.cpu7.icache.blocked_cycles::no_mshrs          136                       # number of cycles access was blocked
system.cpu7.icache.blocked_cycles::no_targets            0                       # number of cycles access was blocked
system.cpu7.icache.blocked::no_mshrs               14                       # number of cycles access was blocked
system.cpu7.icache.blocked::no_targets              0                       # number of cycles access was blocked
system.cpu7.icache.avg_blocked_cycles::no_mshrs     9.714286                       # average number of cycles each access was blocked
system.cpu7.icache.avg_blocked_cycles::no_targets          nan                       # average number of cycles each access was blocked
system.cpu7.icache.writebacks::writebacks       243878                       # number of writebacks
system.cpu7.icache.writebacks::total           243878                       # number of writebacks
system.cpu7.icache.ReadReq_mshr_hits::cpu7.inst        32686                       # number of ReadReq MSHR hits
system.cpu7.icache.ReadReq_mshr_hits::total        32686                       # number of ReadReq MSHR hits
system.cpu7.icache.demand_mshr_hits::cpu7.inst        32686                       # number of demand (read+write) MSHR hits
system.cpu7.icache.demand_mshr_hits::total        32686                       # number of demand (read+write) MSHR hits
system.cpu7.icache.overall_mshr_hits::cpu7.inst        32686                       # number of overall MSHR hits
system.cpu7.icache.overall_mshr_hits::total        32686                       # number of overall MSHR hits
system.cpu7.icache.ReadReq_mshr_misses::cpu7.inst       243944                       # number of ReadReq MSHR misses
system.cpu7.icache.ReadReq_mshr_misses::total       243944                       # number of ReadReq MSHR misses
system.cpu7.icache.demand_mshr_misses::cpu7.inst       243944                       # number of demand (read+write) MSHR misses
system.cpu7.icache.demand_mshr_misses::total       243944                       # number of demand (read+write) MSHR misses
system.cpu7.icache.overall_mshr_misses::cpu7.inst       243944                       # number of overall MSHR misses
system.cpu7.icache.overall_mshr_misses::total       243944                       # number of overall MSHR misses
system.cpu7.icache.ReadReq_mshr_miss_latency::cpu7.inst  11105942000                       # number of ReadReq MSHR miss cycles
system.cpu7.icache.ReadReq_mshr_miss_latency::total  11105942000                       # number of ReadReq MSHR miss cycles
system.cpu7.icache.demand_mshr_miss_latency::cpu7.inst  11105942000                       # number of demand (read+write) MSHR miss cycles
system.cpu7.icache.demand_mshr_miss_latency::total  11105942000                       # number of demand (read+write) MSHR miss cycles
system.cpu7.icache.overall_mshr_miss_latency::cpu7.inst  11105942000                       # number of overall MSHR miss cycles
system.cpu7.icache.overall_mshr_miss_latency::total  11105942000                       # number of overall MSHR miss cycles
system.cpu7.icache.ReadReq_mshr_miss_rate::cpu7.inst     0.025454                       # mshr miss rate for ReadReq accesses
system.cpu7.icache.ReadReq_mshr_miss_rate::total     0.025454                       # mshr miss rate for ReadReq accesses
system.cpu7.icache.demand_mshr_miss_rate::cpu7.inst     0.025454                       # mshr miss rate for demand accesses
system.cpu7.icache.demand_mshr_miss_rate::total     0.025454                       # mshr miss rate for demand accesses
system.cpu7.icache.overall_mshr_miss_rate::cpu7.inst     0.025454                       # mshr miss rate for overall accesses
system.cpu7.icache.overall_mshr_miss_rate::total     0.025454                       # mshr miss rate for overall accesses
system.cpu7.icache.ReadReq_avg_mshr_miss_latency::cpu7.inst 45526.604467                       # average ReadReq mshr miss latency
system.cpu7.icache.ReadReq_avg_mshr_miss_latency::total 45526.604467                       # average ReadReq mshr miss latency
system.cpu7.icache.demand_avg_mshr_miss_latency::cpu7.inst 45526.604467                       # average overall mshr miss latency
system.cpu7.icache.demand_avg_mshr_miss_latency::total 45526.604467                       # average overall mshr miss latency
system.cpu7.icache.overall_avg_mshr_miss_latency::cpu7.inst 45526.604467                       # average overall mshr miss latency
system.cpu7.icache.overall_avg_mshr_miss_latency::total 45526.604467                       # average overall mshr miss latency
system.cpu_voltage_domain.voltage                   1                       # Voltage in Volts
system.cpu_clk_domain.clock                       500                       # Clock period in ticks
system.membus.snoop_filter.tot_requests       9377674                       # Total number of requests made to the snoop filter.
system.membus.snoop_filter.hit_single_requests      3702218                       # Number of requests hitting in the snoop filter with a single holder of the requested data.
system.membus.snoop_filter.hit_multi_requests      3051688                       # Number of requests hitting in the snoop filter with multiple (>1) holders of the requested data.
system.membus.snoop_filter.tot_snoops               0                       # Total number of snoops made to the snoop filter.
system.membus.snoop_filter.hit_single_snoops            0                       # Number of snoops hitting in the snoop filter with a single holder of the requested data.
system.membus.snoop_filter.hit_multi_snoops            0                       # Number of snoops hitting in the snoop filter with multiple (>1) holders of the requested data.
system.membus.pwrStateResidencyTicks::UNDEFINED 143895880000                       # Cumulative time (in ticks) in various power states
system.membus.trans_dist::ReadResp            4151410                       # Transaction distribution
system.membus.trans_dist::ReadRespWithInvalidate           60                       # Transaction distribution
system.membus.trans_dist::WritebackDirty        88172                       # Transaction distribution
system.membus.trans_dist::WritebackClean      3971739                       # Transaction distribution
system.membus.trans_dist::CleanEvict           139175                       # Transaction distribution
system.membus.trans_dist::UpgradeReq             6266                       # Transaction distribution
system.membus.trans_dist::SCUpgradeReq          10538                       # Transaction distribution
system.membus.trans_dist::UpgradeResp           13676                       # Transaction distribution
system.membus.trans_dist::SCUpgradeFailReq          927                       # Transaction distribution
system.membus.trans_dist::UpgradeFailResp          927                       # Transaction distribution
system.membus.trans_dist::ReadExReq             76788                       # Transaction distribution
system.membus.trans_dist::ReadExResp            76788                       # Transaction distribution
system.membus.trans_dist::ReadCleanReq        3972271                       # Transaction distribution
system.membus.trans_dist::ReadSharedReq        179200                       # Transaction distribution
system.membus.pkt_count_system.cpu0.icache.mem_side::system.physmem.port      4649259                       # Packet count per connected master and slave (bytes)
system.membus.pkt_count_system.cpu0.dcache.mem_side::system.physmem.port       177923                       # Packet count per connected master and slave (bytes)
system.membus.pkt_count_system.cpu1.icache.mem_side::system.physmem.port      1086740                       # Packet count per connected master and slave (bytes)
system.membus.pkt_count_system.cpu1.dcache.mem_side::system.physmem.port        78061                       # Packet count per connected master and slave (bytes)
system.membus.pkt_count_system.cpu2.icache.mem_side::system.physmem.port      1093842                       # Packet count per connected master and slave (bytes)
system.membus.pkt_count_system.cpu2.dcache.mem_side::system.physmem.port        83047                       # Packet count per connected master and slave (bytes)
system.membus.pkt_count_system.cpu3.icache.mem_side::system.physmem.port      1087725                       # Packet count per connected master and slave (bytes)
system.membus.pkt_count_system.cpu3.dcache.mem_side::system.physmem.port        81542                       # Packet count per connected master and slave (bytes)
system.membus.pkt_count_system.cpu4.icache.mem_side::system.physmem.port      1085342                       # Packet count per connected master and slave (bytes)
system.membus.pkt_count_system.cpu4.dcache.mem_side::system.physmem.port        79111                       # Packet count per connected master and slave (bytes)
system.membus.pkt_count_system.cpu5.icache.mem_side::system.physmem.port      1089792                       # Packet count per connected master and slave (bytes)
system.membus.pkt_count_system.cpu5.dcache.mem_side::system.physmem.port        87212                       # Packet count per connected master and slave (bytes)
system.membus.pkt_count_system.cpu6.icache.mem_side::system.physmem.port      1091786                       # Packet count per connected master and slave (bytes)
system.membus.pkt_count_system.cpu6.dcache.mem_side::system.physmem.port        80171                       # Packet count per connected master and slave (bytes)
system.membus.pkt_count_system.cpu7.icache.mem_side::system.physmem.port       731764                       # Packet count per connected master and slave (bytes)
system.membus.pkt_count_system.cpu7.dcache.mem_side::system.physmem.port        61220                       # Packet count per connected master and slave (bytes)
system.membus.pkt_count::total               12644537                       # Packet count per connected master and slave (bytes)
system.membus.pkt_size_system.cpu0.icache.mem_side::system.physmem.port    198366784                       # Cumulative packet size per connected master and slave (bytes)
system.membus.pkt_size_system.cpu0.dcache.mem_side::system.physmem.port      4936576                       # Cumulative packet size per connected master and slave (bytes)
system.membus.pkt_size_system.cpu1.icache.mem_side::system.physmem.port     46366208                       # Cumulative packet size per connected master and slave (bytes)
system.membus.pkt_size_system.cpu1.dcache.mem_side::system.physmem.port      2229184                       # Cumulative packet size per connected master and slave (bytes)
system.membus.pkt_size_system.cpu2.icache.mem_side::system.physmem.port     46668928                       # Cumulative packet size per connected master and slave (bytes)
system.membus.pkt_size_system.cpu2.dcache.mem_side::system.physmem.port      2195136                       # Cumulative packet size per connected master and slave (bytes)
system.membus.pkt_size_system.cpu3.icache.mem_side::system.physmem.port     46408064                       # Cumulative packet size per connected master and slave (bytes)
system.membus.pkt_size_system.cpu3.dcache.mem_side::system.physmem.port      2347456                       # Cumulative packet size per connected master and slave (bytes)
system.membus.pkt_size_system.cpu4.icache.mem_side::system.physmem.port     46306560                       # Cumulative packet size per connected master and slave (bytes)
system.membus.pkt_size_system.cpu4.dcache.mem_side::system.physmem.port      2265792                       # Cumulative packet size per connected master and slave (bytes)
system.membus.pkt_size_system.cpu5.icache.mem_side::system.physmem.port     46496128                       # Cumulative packet size per connected master and slave (bytes)
system.membus.pkt_size_system.cpu5.dcache.mem_side::system.physmem.port      2362112                       # Cumulative packet size per connected master and slave (bytes)
system.membus.pkt_size_system.cpu6.icache.mem_side::system.physmem.port     46581504                       # Cumulative packet size per connected master and slave (bytes)
system.membus.pkt_size_system.cpu6.dcache.mem_side::system.physmem.port      2290112                       # Cumulative packet size per connected master and slave (bytes)
system.membus.pkt_size_system.cpu7.icache.mem_side::system.physmem.port     31220480                       # Cumulative packet size per connected master and slave (bytes)
system.membus.pkt_size_system.cpu7.dcache.mem_side::system.physmem.port      1558784                       # Cumulative packet size per connected master and slave (bytes)
system.membus.pkt_size::total               528599808                       # Cumulative packet size per connected master and slave (bytes)
system.membus.snoops                            43400                       # Total snoops (count)
system.membus.snoopTraffic                    1902336                       # Total snoop traffic (bytes)
system.membus.snoop_fanout::samples           4885798                       # Request fanout histogram
system.membus.snoop_fanout::mean             1.056533                       # Request fanout histogram
system.membus.snoop_fanout::stdev            1.676895                       # Request fanout histogram
system.membus.snoop_fanout::underflows              0      0.00%      0.00% # Request fanout histogram
system.membus.snoop_fanout::0                 2624107     53.71%     53.71% # Request fanout histogram
system.membus.snoop_fanout::1                 1048901     21.47%     75.18% # Request fanout histogram
system.membus.snoop_fanout::2                  538632     11.02%     86.20% # Request fanout histogram
system.membus.snoop_fanout::3                  285686      5.85%     92.05% # Request fanout histogram
system.membus.snoop_fanout::4                  121956      2.50%     94.55% # Request fanout histogram
system.membus.snoop_fanout::5                   96254      1.97%     96.52% # Request fanout histogram
system.membus.snoop_fanout::6                   77969      1.60%     98.11% # Request fanout histogram
system.membus.snoop_fanout::7                   59570      1.22%     99.33% # Request fanout histogram
system.membus.snoop_fanout::8                    8347      0.17%     99.50% # Request fanout histogram
system.membus.snoop_fanout::9                    8172      0.17%     99.67% # Request fanout histogram
system.membus.snoop_fanout::10                   6373      0.13%     99.80% # Request fanout histogram
system.membus.snoop_fanout::11                   3677      0.08%     99.87% # Request fanout histogram
system.membus.snoop_fanout::12                   2263      0.05%     99.92% # Request fanout histogram
system.membus.snoop_fanout::13                   1865      0.04%     99.96% # Request fanout histogram
system.membus.snoop_fanout::14                   1405      0.03%     99.99% # Request fanout histogram
system.membus.snoop_fanout::15                    621      0.01%    100.00% # Request fanout histogram
system.membus.snoop_fanout::16                      0      0.00%    100.00% # Request fanout histogram
system.membus.snoop_fanout::overflows               0      0.00%    100.00% # Request fanout histogram
system.membus.snoop_fanout::min_value               0                       # Request fanout histogram
system.membus.snoop_fanout::max_value              15                       # Request fanout histogram
system.membus.snoop_fanout::total             4885798                       # Request fanout histogram
system.membus.reqLayer0.occupancy         25985080253                       # Layer occupancy (ticks)
system.membus.reqLayer0.utilization              18.1                       # Layer utilization (%)
system.membus.respLayer1.occupancy         7748885000                       # Layer occupancy (ticks)
system.membus.respLayer1.utilization              5.4                       # Layer utilization (%)
system.membus.respLayer2.occupancy          310583591                       # Layer occupancy (ticks)
system.membus.respLayer2.utilization              0.2                       # Layer utilization (%)
system.membus.respLayer5.occupancy         1811340000                       # Layer occupancy (ticks)
system.membus.respLayer5.utilization              1.3                       # Layer utilization (%)
system.membus.respLayer6.occupancy          136173819                       # Layer occupancy (ticks)
system.membus.respLayer6.utilization              0.1                       # Layer utilization (%)
system.membus.respLayer9.occupancy         1823200000                       # Layer occupancy (ticks)
system.membus.respLayer9.utilization              1.3                       # Layer utilization (%)
system.membus.respLayer10.occupancy         153167604                       # Layer occupancy (ticks)
system.membus.respLayer10.utilization             0.1                       # Layer utilization (%)
system.membus.respLayer13.occupancy        1812995000                       # Layer occupancy (ticks)
system.membus.respLayer13.utilization             1.3                       # Layer utilization (%)
system.membus.respLayer14.occupancy         141139588                       # Layer occupancy (ticks)
system.membus.respLayer14.utilization             0.1                       # Layer utilization (%)
system.membus.respLayer17.occupancy        1809010000                       # Layer occupancy (ticks)
system.membus.respLayer17.utilization             1.3                       # Layer utilization (%)
system.membus.respLayer18.occupancy         138206618                       # Layer occupancy (ticks)
system.membus.respLayer18.utilization             0.1                       # Layer utilization (%)
system.membus.respLayer21.occupancy        1816450000                       # Layer occupancy (ticks)
system.membus.respLayer21.utilization             1.3                       # Layer utilization (%)
system.membus.respLayer22.occupancy         158472836                       # Layer occupancy (ticks)
system.membus.respLayer22.utilization             0.1                       # Layer utilization (%)
system.membus.respLayer25.occupancy        1819750000                       # Layer occupancy (ticks)
system.membus.respLayer25.utilization             1.3                       # Layer utilization (%)
system.membus.respLayer26.occupancy         142340035                       # Layer occupancy (ticks)
system.membus.respLayer26.utilization             0.1                       # Layer utilization (%)
system.membus.respLayer29.occupancy        1219720000                       # Layer occupancy (ticks)
system.membus.respLayer29.utilization             0.8                       # Layer utilization (%)
system.membus.respLayer30.occupancy         119416809                       # Layer occupancy (ticks)
system.membus.respLayer30.utilization             0.1                       # Layer utilization (%)

---------- End Simulation Statistics   ----------
