
---------- Begin Simulation Statistics ----------
sim_seconds                                  0.129040                       # Number of seconds simulated
sim_ticks                                129039802000                       # Number of ticks simulated
final_tick                               129039802000                       # Number of ticks from beginning of simulation (restored from checkpoints and never reset)
sim_freq                                 1000000000000                       # Frequency of simulated ticks
host_inst_rate                                 257814                       # Simulator instruction rate (inst/s)
host_op_rate                                   283476                       # Simulator op (including micro ops) rate (op/s)
host_tick_rate                               43654075                       # Simulator tick rate (ticks/s)
host_mem_usage                                 721292                       # Number of bytes of host memory used
host_seconds                                  2955.96                       # Real time elapsed on the host
sim_insts                                   762087071                       # Number of instructions simulated
sim_ops                                     837943919                       # Number of ops (including micro ops) simulated
system.voltage_domain.voltage                       1                       # Voltage in Volts
system.clk_domain.clock                          1000                       # Clock period in ticks
system.physmem.pwrStateResidencyTicks::UNDEFINED 129039802000                       # Cumulative time (in ticks) in various power states
system.physmem.bytes_read::cpu0.inst         74908672                       # Number of bytes read from this memory
system.physmem.bytes_read::cpu0.data          4332736                       # Number of bytes read from this memory
system.physmem.bytes_read::cpu1.inst         14103872                       # Number of bytes read from this memory
system.physmem.bytes_read::cpu1.data           936576                       # Number of bytes read from this memory
system.physmem.bytes_read::cpu2.inst         14136704                       # Number of bytes read from this memory
system.physmem.bytes_read::cpu2.data           956160                       # Number of bytes read from this memory
system.physmem.bytes_read::cpu3.inst         13993600                       # Number of bytes read from this memory
system.physmem.bytes_read::cpu3.data          1180032                       # Number of bytes read from this memory
system.physmem.bytes_read::cpu4.inst         14057344                       # Number of bytes read from this memory
system.physmem.bytes_read::cpu4.data          1093888                       # Number of bytes read from this memory
system.physmem.bytes_read::cpu5.inst         13981824                       # Number of bytes read from this memory
system.physmem.bytes_read::cpu5.data          1068608                       # Number of bytes read from this memory
system.physmem.bytes_read::cpu6.inst         14048128                       # Number of bytes read from this memory
system.physmem.bytes_read::cpu6.data          1152128                       # Number of bytes read from this memory
system.physmem.bytes_read::cpu7.inst          9404288                       # Number of bytes read from this memory
system.physmem.bytes_read::cpu7.data           795072                       # Number of bytes read from this memory
system.physmem.bytes_read::total            180149632                       # Number of bytes read from this memory
system.physmem.bytes_inst_read::cpu0.inst     74908672                       # Number of instructions bytes read from this memory
system.physmem.bytes_inst_read::cpu1.inst     14103872                       # Number of instructions bytes read from this memory
system.physmem.bytes_inst_read::cpu2.inst     14136704                       # Number of instructions bytes read from this memory
system.physmem.bytes_inst_read::cpu3.inst     13993600                       # Number of instructions bytes read from this memory
system.physmem.bytes_inst_read::cpu4.inst     14057344                       # Number of instructions bytes read from this memory
system.physmem.bytes_inst_read::cpu5.inst     13981824                       # Number of instructions bytes read from this memory
system.physmem.bytes_inst_read::cpu6.inst     14048128                       # Number of instructions bytes read from this memory
system.physmem.bytes_inst_read::cpu7.inst      9404288                       # Number of instructions bytes read from this memory
system.physmem.bytes_inst_read::total       168634432                       # Number of instructions bytes read from this memory
system.physmem.bytes_written::writebacks      4240448                       # Number of bytes written to this memory
system.physmem.bytes_written::total           4240448                       # Number of bytes written to this memory
system.physmem.num_reads::cpu0.inst           1170448                       # Number of read requests responded to by this memory
system.physmem.num_reads::cpu0.data             67699                       # Number of read requests responded to by this memory
system.physmem.num_reads::cpu1.inst            220373                       # Number of read requests responded to by this memory
system.physmem.num_reads::cpu1.data             14634                       # Number of read requests responded to by this memory
system.physmem.num_reads::cpu2.inst            220886                       # Number of read requests responded to by this memory
system.physmem.num_reads::cpu2.data             14940                       # Number of read requests responded to by this memory
system.physmem.num_reads::cpu3.inst            218650                       # Number of read requests responded to by this memory
system.physmem.num_reads::cpu3.data             18438                       # Number of read requests responded to by this memory
system.physmem.num_reads::cpu4.inst            219646                       # Number of read requests responded to by this memory
system.physmem.num_reads::cpu4.data             17092                       # Number of read requests responded to by this memory
system.physmem.num_reads::cpu5.inst            218466                       # Number of read requests responded to by this memory
system.physmem.num_reads::cpu5.data             16697                       # Number of read requests responded to by this memory
system.physmem.num_reads::cpu6.inst            219502                       # Number of read requests responded to by this memory
system.physmem.num_reads::cpu6.data             18002                       # Number of read requests responded to by this memory
system.physmem.num_reads::cpu7.inst            146942                       # Number of read requests responded to by this memory
system.physmem.num_reads::cpu7.data             12423                       # Number of read requests responded to by this memory
system.physmem.num_reads::total               2814838                       # Number of read requests responded to by this memory
system.physmem.num_writes::writebacks           66257                       # Number of write requests responded to by this memory
system.physmem.num_writes::total                66257                       # Number of write requests responded to by this memory
system.physmem.bw_read::cpu0.inst           580508268                       # Total read bandwidth from this memory (bytes/s)
system.physmem.bw_read::cpu0.data            33576741                       # Total read bandwidth from this memory (bytes/s)
system.physmem.bw_read::cpu1.inst           109298618                       # Total read bandwidth from this memory (bytes/s)
system.physmem.bw_read::cpu1.data             7258040                       # Total read bandwidth from this memory (bytes/s)
system.physmem.bw_read::cpu2.inst           109553051                       # Total read bandwidth from this memory (bytes/s)
system.physmem.bw_read::cpu2.data             7409807                       # Total read bandwidth from this memory (bytes/s)
system.physmem.bw_read::cpu3.inst           108444060                       # Total read bandwidth from this memory (bytes/s)
system.physmem.bw_read::cpu3.data             9144713                       # Total read bandwidth from this memory (bytes/s)
system.physmem.bw_read::cpu4.inst           108938047                       # Total read bandwidth from this memory (bytes/s)
system.physmem.bw_read::cpu4.data             8477136                       # Total read bandwidth from this memory (bytes/s)
system.physmem.bw_read::cpu5.inst           108352801                       # Total read bandwidth from this memory (bytes/s)
system.physmem.bw_read::cpu5.data             8281228                       # Total read bandwidth from this memory (bytes/s)
system.physmem.bw_read::cpu6.inst           108866627                       # Total read bandwidth from this memory (bytes/s)
system.physmem.bw_read::cpu6.data             8928470                       # Total read bandwidth from this memory (bytes/s)
system.physmem.bw_read::cpu7.inst            72878971                       # Total read bandwidth from this memory (bytes/s)
system.physmem.bw_read::cpu7.data             6161448                       # Total read bandwidth from this memory (bytes/s)
system.physmem.bw_read::total              1396078026                       # Total read bandwidth from this memory (bytes/s)
system.physmem.bw_inst_read::cpu0.inst      580508268                       # Instruction read bandwidth from this memory (bytes/s)
system.physmem.bw_inst_read::cpu1.inst      109298618                       # Instruction read bandwidth from this memory (bytes/s)
system.physmem.bw_inst_read::cpu2.inst      109553051                       # Instruction read bandwidth from this memory (bytes/s)
system.physmem.bw_inst_read::cpu3.inst      108444060                       # Instruction read bandwidth from this memory (bytes/s)
system.physmem.bw_inst_read::cpu4.inst      108938047                       # Instruction read bandwidth from this memory (bytes/s)
system.physmem.bw_inst_read::cpu5.inst      108352801                       # Instruction read bandwidth from this memory (bytes/s)
system.physmem.bw_inst_read::cpu6.inst      108866627                       # Instruction read bandwidth from this memory (bytes/s)
system.physmem.bw_inst_read::cpu7.inst       72878971                       # Instruction read bandwidth from this memory (bytes/s)
system.physmem.bw_inst_read::total         1306840443                       # Instruction read bandwidth from this memory (bytes/s)
system.physmem.bw_write::writebacks          32861551                       # Write bandwidth from this memory (bytes/s)
system.physmem.bw_write::total               32861551                       # Write bandwidth from this memory (bytes/s)
system.physmem.bw_total::writebacks          32861551                       # Total bandwidth to/from this memory (bytes/s)
system.physmem.bw_total::cpu0.inst          580508268                       # Total bandwidth to/from this memory (bytes/s)
system.physmem.bw_total::cpu0.data           33576741                       # Total bandwidth to/from this memory (bytes/s)
system.physmem.bw_total::cpu1.inst          109298618                       # Total bandwidth to/from this memory (bytes/s)
system.physmem.bw_total::cpu1.data            7258040                       # Total bandwidth to/from this memory (bytes/s)
system.physmem.bw_total::cpu2.inst          109553051                       # Total bandwidth to/from this memory (bytes/s)
system.physmem.bw_total::cpu2.data            7409807                       # Total bandwidth to/from this memory (bytes/s)
system.physmem.bw_total::cpu3.inst          108444060                       # Total bandwidth to/from this memory (bytes/s)
system.physmem.bw_total::cpu3.data            9144713                       # Total bandwidth to/from this memory (bytes/s)
system.physmem.bw_total::cpu4.inst          108938047                       # Total bandwidth to/from this memory (bytes/s)
system.physmem.bw_total::cpu4.data            8477136                       # Total bandwidth to/from this memory (bytes/s)
system.physmem.bw_total::cpu5.inst          108352801                       # Total bandwidth to/from this memory (bytes/s)
system.physmem.bw_total::cpu5.data            8281228                       # Total bandwidth to/from this memory (bytes/s)
system.physmem.bw_total::cpu6.inst          108866627                       # Total bandwidth to/from this memory (bytes/s)
system.physmem.bw_total::cpu6.data            8928470                       # Total bandwidth to/from this memory (bytes/s)
system.physmem.bw_total::cpu7.inst           72878971                       # Total bandwidth to/from this memory (bytes/s)
system.physmem.bw_total::cpu7.data            6161448                       # Total bandwidth to/from this memory (bytes/s)
system.physmem.bw_total::total             1428939576                       # Total bandwidth to/from this memory (bytes/s)
system.pwrStateResidencyTicks::UNDEFINED 129039802000                       # Cumulative time (in ticks) in various power states
system.cpu0.branchPred.lookups               17907302                       # Number of BP lookups
system.cpu0.branchPred.condPredicted         10925299                       # Number of conditional branches predicted
system.cpu0.branchPred.condIncorrect           433670                       # Number of conditional branches incorrect
system.cpu0.branchPred.BTBLookups             9714082                       # Number of BTB lookups
system.cpu0.branchPred.BTBHits                8467123                       # Number of BTB hits
system.cpu0.branchPred.BTBCorrect                   0                       # Number of correct BTB predictions (this stat may not work properly.
system.cpu0.branchPred.BTBHitPct            87.163388                       # BTB Hit Percentage
system.cpu0.branchPred.usedRAS                2240732                       # Number of times the RAS was used to get a target.
system.cpu0.branchPred.RASInCorrect             40346                       # Number of incorrect RAS predictions.
system.cpu0.branchPred.indirectLookups         559706                       # Number of indirect predictor lookups.
system.cpu0.branchPred.indirectHits            556820                       # Number of indirect target hits.
system.cpu0.branchPred.indirectMisses            2886                       # Number of indirect misses.
system.cpu0.branchPredindirectMispredicted         9456                       # Number of mispredicted indirect branches.
system.cpu0.dstage2_mmu.stage2_tlb.walker.pwrStateResidencyTicks::UNDEFINED 129039802000                       # Cumulative time (in ticks) in various power states
system.cpu0.dstage2_mmu.stage2_tlb.walker.walks            0                       # Table walker walks requested
system.cpu0.dstage2_mmu.stage2_tlb.walker.walkRequestOrigin_Requested::Data            0                       # Table walker requests started/completed, data/inst
system.cpu0.dstage2_mmu.stage2_tlb.walker.walkRequestOrigin_Requested::Inst            0                       # Table walker requests started/completed, data/inst
system.cpu0.dstage2_mmu.stage2_tlb.walker.walkRequestOrigin_Requested::total            0                       # Table walker requests started/completed, data/inst
system.cpu0.dstage2_mmu.stage2_tlb.walker.walkRequestOrigin_Completed::Data            0                       # Table walker requests started/completed, data/inst
system.cpu0.dstage2_mmu.stage2_tlb.walker.walkRequestOrigin_Completed::Inst            0                       # Table walker requests started/completed, data/inst
system.cpu0.dstage2_mmu.stage2_tlb.walker.walkRequestOrigin_Completed::total            0                       # Table walker requests started/completed, data/inst
system.cpu0.dstage2_mmu.stage2_tlb.walker.walkRequestOrigin::total            0                       # Table walker requests started/completed, data/inst
system.cpu0.dstage2_mmu.stage2_tlb.inst_hits            0                       # ITB inst hits
system.cpu0.dstage2_mmu.stage2_tlb.inst_misses            0                       # ITB inst misses
system.cpu0.dstage2_mmu.stage2_tlb.read_hits            0                       # DTB read hits
system.cpu0.dstage2_mmu.stage2_tlb.read_misses            0                       # DTB read misses
system.cpu0.dstage2_mmu.stage2_tlb.write_hits            0                       # DTB write hits
system.cpu0.dstage2_mmu.stage2_tlb.write_misses            0                       # DTB write misses
system.cpu0.dstage2_mmu.stage2_tlb.flush_tlb            0                       # Number of times complete TLB was flushed
system.cpu0.dstage2_mmu.stage2_tlb.flush_tlb_mva            0                       # Number of times TLB was flushed by MVA
system.cpu0.dstage2_mmu.stage2_tlb.flush_tlb_mva_asid            0                       # Number of times TLB was flushed by MVA & ASID
system.cpu0.dstage2_mmu.stage2_tlb.flush_tlb_asid            0                       # Number of times TLB was flushed by ASID
system.cpu0.dstage2_mmu.stage2_tlb.flush_entries            0                       # Number of entries that have been flushed from TLB
system.cpu0.dstage2_mmu.stage2_tlb.align_faults            0                       # Number of TLB faults due to alignment restrictions
system.cpu0.dstage2_mmu.stage2_tlb.prefetch_faults            0                       # Number of TLB faults due to prefetch
system.cpu0.dstage2_mmu.stage2_tlb.domain_faults            0                       # Number of TLB faults due to domain restrictions
system.cpu0.dstage2_mmu.stage2_tlb.perms_faults            0                       # Number of TLB faults due to permissions restrictions
system.cpu0.dstage2_mmu.stage2_tlb.read_accesses            0                       # DTB read accesses
system.cpu0.dstage2_mmu.stage2_tlb.write_accesses            0                       # DTB write accesses
system.cpu0.dstage2_mmu.stage2_tlb.inst_accesses            0                       # ITB inst accesses
system.cpu0.dstage2_mmu.stage2_tlb.hits             0                       # DTB hits
system.cpu0.dstage2_mmu.stage2_tlb.misses            0                       # DTB misses
system.cpu0.dstage2_mmu.stage2_tlb.accesses            0                       # DTB accesses
system.cpu0.dtb.walker.pwrStateResidencyTicks::UNDEFINED 129039802000                       # Cumulative time (in ticks) in various power states
system.cpu0.dtb.walker.walks                        0                       # Table walker walks requested
system.cpu0.dtb.walker.walkRequestOrigin_Requested::Data            0                       # Table walker requests started/completed, data/inst
system.cpu0.dtb.walker.walkRequestOrigin_Requested::Inst            0                       # Table walker requests started/completed, data/inst
system.cpu0.dtb.walker.walkRequestOrigin_Requested::total            0                       # Table walker requests started/completed, data/inst
system.cpu0.dtb.walker.walkRequestOrigin_Completed::Data            0                       # Table walker requests started/completed, data/inst
system.cpu0.dtb.walker.walkRequestOrigin_Completed::Inst            0                       # Table walker requests started/completed, data/inst
system.cpu0.dtb.walker.walkRequestOrigin_Completed::total            0                       # Table walker requests started/completed, data/inst
system.cpu0.dtb.walker.walkRequestOrigin::total            0                       # Table walker requests started/completed, data/inst
system.cpu0.dtb.inst_hits                           0                       # ITB inst hits
system.cpu0.dtb.inst_misses                         0                       # ITB inst misses
system.cpu0.dtb.read_hits                           0                       # DTB read hits
system.cpu0.dtb.read_misses                         0                       # DTB read misses
system.cpu0.dtb.write_hits                          0                       # DTB write hits
system.cpu0.dtb.write_misses                        0                       # DTB write misses
system.cpu0.dtb.flush_tlb                           0                       # Number of times complete TLB was flushed
system.cpu0.dtb.flush_tlb_mva                       0                       # Number of times TLB was flushed by MVA
system.cpu0.dtb.flush_tlb_mva_asid                  0                       # Number of times TLB was flushed by MVA & ASID
system.cpu0.dtb.flush_tlb_asid                      0                       # Number of times TLB was flushed by ASID
system.cpu0.dtb.flush_entries                       0                       # Number of entries that have been flushed from TLB
system.cpu0.dtb.align_faults                        0                       # Number of TLB faults due to alignment restrictions
system.cpu0.dtb.prefetch_faults                     0                       # Number of TLB faults due to prefetch
system.cpu0.dtb.domain_faults                       0                       # Number of TLB faults due to domain restrictions
system.cpu0.dtb.perms_faults                        0                       # Number of TLB faults due to permissions restrictions
system.cpu0.dtb.read_accesses                       0                       # DTB read accesses
system.cpu0.dtb.write_accesses                      0                       # DTB write accesses
system.cpu0.dtb.inst_accesses                       0                       # ITB inst accesses
system.cpu0.dtb.hits                                0                       # DTB hits
system.cpu0.dtb.misses                              0                       # DTB misses
system.cpu0.dtb.accesses                            0                       # DTB accesses
system.cpu0.istage2_mmu.stage2_tlb.walker.pwrStateResidencyTicks::UNDEFINED 129039802000                       # Cumulative time (in ticks) in various power states
system.cpu0.istage2_mmu.stage2_tlb.walker.walks            0                       # Table walker walks requested
system.cpu0.istage2_mmu.stage2_tlb.walker.walkRequestOrigin_Requested::Data            0                       # Table walker requests started/completed, data/inst
system.cpu0.istage2_mmu.stage2_tlb.walker.walkRequestOrigin_Requested::Inst            0                       # Table walker requests started/completed, data/inst
system.cpu0.istage2_mmu.stage2_tlb.walker.walkRequestOrigin_Requested::total            0                       # Table walker requests started/completed, data/inst
system.cpu0.istage2_mmu.stage2_tlb.walker.walkRequestOrigin_Completed::Data            0                       # Table walker requests started/completed, data/inst
system.cpu0.istage2_mmu.stage2_tlb.walker.walkRequestOrigin_Completed::Inst            0                       # Table walker requests started/completed, data/inst
system.cpu0.istage2_mmu.stage2_tlb.walker.walkRequestOrigin_Completed::total            0                       # Table walker requests started/completed, data/inst
system.cpu0.istage2_mmu.stage2_tlb.walker.walkRequestOrigin::total            0                       # Table walker requests started/completed, data/inst
system.cpu0.istage2_mmu.stage2_tlb.inst_hits            0                       # ITB inst hits
system.cpu0.istage2_mmu.stage2_tlb.inst_misses            0                       # ITB inst misses
system.cpu0.istage2_mmu.stage2_tlb.read_hits            0                       # DTB read hits
system.cpu0.istage2_mmu.stage2_tlb.read_misses            0                       # DTB read misses
system.cpu0.istage2_mmu.stage2_tlb.write_hits            0                       # DTB write hits
system.cpu0.istage2_mmu.stage2_tlb.write_misses            0                       # DTB write misses
system.cpu0.istage2_mmu.stage2_tlb.flush_tlb            0                       # Number of times complete TLB was flushed
system.cpu0.istage2_mmu.stage2_tlb.flush_tlb_mva            0                       # Number of times TLB was flushed by MVA
system.cpu0.istage2_mmu.stage2_tlb.flush_tlb_mva_asid            0                       # Number of times TLB was flushed by MVA & ASID
system.cpu0.istage2_mmu.stage2_tlb.flush_tlb_asid            0                       # Number of times TLB was flushed by ASID
system.cpu0.istage2_mmu.stage2_tlb.flush_entries            0                       # Number of entries that have been flushed from TLB
system.cpu0.istage2_mmu.stage2_tlb.align_faults            0                       # Number of TLB faults due to alignment restrictions
system.cpu0.istage2_mmu.stage2_tlb.prefetch_faults            0                       # Number of TLB faults due to prefetch
system.cpu0.istage2_mmu.stage2_tlb.domain_faults            0                       # Number of TLB faults due to domain restrictions
system.cpu0.istage2_mmu.stage2_tlb.perms_faults            0                       # Number of TLB faults due to permissions restrictions
system.cpu0.istage2_mmu.stage2_tlb.read_accesses            0                       # DTB read accesses
system.cpu0.istage2_mmu.stage2_tlb.write_accesses            0                       # DTB write accesses
system.cpu0.istage2_mmu.stage2_tlb.inst_accesses            0                       # ITB inst accesses
system.cpu0.istage2_mmu.stage2_tlb.hits             0                       # DTB hits
system.cpu0.istage2_mmu.stage2_tlb.misses            0                       # DTB misses
system.cpu0.istage2_mmu.stage2_tlb.accesses            0                       # DTB accesses
system.cpu0.itb.walker.pwrStateResidencyTicks::UNDEFINED 129039802000                       # Cumulative time (in ticks) in various power states
system.cpu0.itb.walker.walks                        0                       # Table walker walks requested
system.cpu0.itb.walker.walkRequestOrigin_Requested::Data            0                       # Table walker requests started/completed, data/inst
system.cpu0.itb.walker.walkRequestOrigin_Requested::Inst            0                       # Table walker requests started/completed, data/inst
system.cpu0.itb.walker.walkRequestOrigin_Requested::total            0                       # Table walker requests started/completed, data/inst
system.cpu0.itb.walker.walkRequestOrigin_Completed::Data            0                       # Table walker requests started/completed, data/inst
system.cpu0.itb.walker.walkRequestOrigin_Completed::Inst            0                       # Table walker requests started/completed, data/inst
system.cpu0.itb.walker.walkRequestOrigin_Completed::total            0                       # Table walker requests started/completed, data/inst
system.cpu0.itb.walker.walkRequestOrigin::total            0                       # Table walker requests started/completed, data/inst
system.cpu0.itb.inst_hits                           0                       # ITB inst hits
system.cpu0.itb.inst_misses                         0                       # ITB inst misses
system.cpu0.itb.read_hits                           0                       # DTB read hits
system.cpu0.itb.read_misses                         0                       # DTB read misses
system.cpu0.itb.write_hits                          0                       # DTB write hits
system.cpu0.itb.write_misses                        0                       # DTB write misses
system.cpu0.itb.flush_tlb                           0                       # Number of times complete TLB was flushed
system.cpu0.itb.flush_tlb_mva                       0                       # Number of times TLB was flushed by MVA
system.cpu0.itb.flush_tlb_mva_asid                  0                       # Number of times TLB was flushed by MVA & ASID
system.cpu0.itb.flush_tlb_asid                      0                       # Number of times TLB was flushed by ASID
system.cpu0.itb.flush_entries                       0                       # Number of entries that have been flushed from TLB
system.cpu0.itb.align_faults                        0                       # Number of TLB faults due to alignment restrictions
system.cpu0.itb.prefetch_faults                     0                       # Number of TLB faults due to prefetch
system.cpu0.itb.domain_faults                       0                       # Number of TLB faults due to domain restrictions
system.cpu0.itb.perms_faults                        0                       # Number of TLB faults due to permissions restrictions
system.cpu0.itb.read_accesses                       0                       # DTB read accesses
system.cpu0.itb.write_accesses                      0                       # DTB write accesses
system.cpu0.itb.inst_accesses                       0                       # ITB inst accesses
system.cpu0.itb.hits                                0                       # DTB hits
system.cpu0.itb.misses                              0                       # DTB misses
system.cpu0.itb.accesses                            0                       # DTB accesses
system.cpu0.workload.num_syscalls              241861                       # Number of system calls
system.cpu0.pwrStateResidencyTicks::ON   129039802000                       # Cumulative time (in ticks) in various power states
system.cpu0.numCycles                       129039803                       # number of cpu cycles simulated
system.cpu0.numWorkItemsStarted                     0                       # number of work items this cpu started
system.cpu0.numWorkItemsCompleted                   0                       # number of work items this cpu completed
system.cpu0.fetch.icacheStallCycles          41502596                       # Number of cycles fetch is stalled on an Icache miss
system.cpu0.fetch.Insts                     100413214                       # Number of instructions fetch has processed
system.cpu0.fetch.Branches                   17907302                       # Number of branches that fetch encountered
system.cpu0.fetch.predictedBranches          11264675                       # Number of branches that fetch has predicted taken
system.cpu0.fetch.Cycles                     65705463                       # Number of cycles fetch has run and was not squashing or blocked
system.cpu0.fetch.SquashCycles                 874301                       # Number of cycles fetch has spent squashing
system.cpu0.fetch.MiscStallCycles                  30                       # Number of cycles fetch has spent waiting on interrupts, or bad addresses, or out of MSHRs
system.cpu0.fetch.PendingTrapStallCycles          335                       # Number of stall cycles due to pending traps
system.cpu0.fetch.IcacheWaitRetryStallCycles           31                       # Number of stall cycles due to full MSHR
system.cpu0.fetch.CacheLines                 13958462                       # Number of cache lines fetched
system.cpu0.fetch.IcacheSquashes               137707                       # Number of outstanding Icache misses that were squashed
system.cpu0.fetch.rateDist::samples         107645605                       # Number of instructions fetched each cycle (Total)
system.cpu0.fetch.rateDist::mean             1.053414                       # Number of instructions fetched each cycle (Total)
system.cpu0.fetch.rateDist::stdev            0.953474                       # Number of instructions fetched each cycle (Total)
system.cpu0.fetch.rateDist::underflows              0      0.00%      0.00% # Number of instructions fetched each cycle (Total)
system.cpu0.fetch.rateDist::0                46209711     42.93%     42.93% # Number of instructions fetched each cycle (Total)
system.cpu0.fetch.rateDist::1                 9476434      8.80%     51.73% # Number of instructions fetched each cycle (Total)
system.cpu0.fetch.rateDist::2                51959460     48.27%    100.00% # Number of instructions fetched each cycle (Total)
system.cpu0.fetch.rateDist::overflows               0      0.00%    100.00% # Number of instructions fetched each cycle (Total)
system.cpu0.fetch.rateDist::min_value               0                       # Number of instructions fetched each cycle (Total)
system.cpu0.fetch.rateDist::max_value               2                       # Number of instructions fetched each cycle (Total)
system.cpu0.fetch.rateDist::total           107645605                       # Number of instructions fetched each cycle (Total)
system.cpu0.fetch.branchRate                 0.138773                       # Number of branch fetches per cycle
system.cpu0.fetch.rate                       0.778157                       # Number of inst fetches per cycle
system.cpu0.decode.IdleCycles                39011271                       # Number of cycles decode is idle
system.cpu0.decode.BlockedCycles             10386118                       # Number of cycles decode is blocked
system.cpu0.decode.RunCycles                 47018029                       # Number of cycles decode is running
system.cpu0.decode.UnblockCycles             10827344                       # Number of cycles decode is unblocking
system.cpu0.decode.SquashCycles                402843                       # Number of cycles decode is squashing
system.cpu0.decode.BranchResolved             4835591                       # Number of times decode resolved a branch
system.cpu0.decode.BranchMispred                34641                       # Number of times decode detected a branch misprediction
system.cpu0.decode.DecodedInsts             111863814                       # Number of instructions handled by decode
system.cpu0.decode.SquashedInsts                60913                       # Number of squashed instructions handled by decode
system.cpu0.rename.SquashCycles                402843                       # Number of cycles rename is squashing
system.cpu0.rename.IdleCycles                41386666                       # Number of cycles rename is idle
system.cpu0.rename.BlockCycles                1077634                       # Number of cycles rename is blocking
system.cpu0.rename.serializeStallCycles        485239                       # count of cycles rename stalled for serializing inst
system.cpu0.rename.RunCycles                 55437592                       # Number of cycles rename is running
system.cpu0.rename.UnblockCycles              8855631                       # Number of cycles rename is unblocking
system.cpu0.rename.RenamedInsts             111344987                       # Number of instructions processed by rename
system.cpu0.rename.IQFullEvents               6707436                       # Number of times rename has blocked due to IQ full
system.cpu0.rename.LQFullEvents                 55753                       # Number of times rename has blocked due to LQ full
system.cpu0.rename.SQFullEvents                  2186                       # Number of times rename has blocked due to SQ full
system.cpu0.rename.RenamedOperands          139482153                       # Number of destination operands rename has renamed
system.cpu0.rename.RenameLookups            513959155                       # Number of register rename lookups that rename has made
system.cpu0.rename.int_rename_lookups       141851744                       # Number of integer rename lookups
system.cpu0.rename.fp_rename_lookups               16                       # Number of floating rename lookups
system.cpu0.rename.CommittedMaps            123961061                       # Number of HB maps that are committed
system.cpu0.rename.UndoneMaps                15521092                       # Number of HB maps that are undone due to squashing
system.cpu0.rename.serializingInsts             20143                       # count of serializing insts renamed
system.cpu0.rename.tempSerializingInsts          8839                       # count of temporary serializing insts renamed
system.cpu0.rename.skidInsts                  9541051                       # count of insts added to the skid buffer
system.cpu0.memDep0.insertedLoads            14487852                       # Number of loads inserted to the mem dependence unit.
system.cpu0.memDep0.insertedStores            9085332                       # Number of stores inserted to the mem dependence unit.
system.cpu0.memDep0.conflictingLoads          4358020                       # Number of conflicting loads.
system.cpu0.memDep0.conflictingStores         1556970                       # Number of conflicting stores.
system.cpu0.iq.iqInstsAdded                 110298113                       # Number of instructions added to the IQ (excludes non-spec)
system.cpu0.iq.iqNonSpecInstsAdded              17659                       # Number of non-speculative instructions added to the IQ
system.cpu0.iq.iqInstsIssued                102120491                       # Number of instructions issued
system.cpu0.iq.iqSquashedInstsIssued          1219509                       # Number of squashed instructions issued
system.cpu0.iq.iqSquashedInstsExamined        9807174                       # Number of squashed instructions iterated over during squash; mainly for profiling
system.cpu0.iq.iqSquashedOperandsExamined     38349227                       # Number of squashed operands that are examined and possibly removed from graph
system.cpu0.iq.iqSquashedNonSpecRemoved           616                       # Number of squashed non-spec instructions that were removed
system.cpu0.iq.issued_per_cycle::samples    107645605                       # Number of insts issued each cycle
system.cpu0.iq.issued_per_cycle::mean        0.948673                       # Number of insts issued each cycle
system.cpu0.iq.issued_per_cycle::stdev       0.660885                       # Number of insts issued each cycle
system.cpu0.iq.issued_per_cycle::underflows            0      0.00%      0.00% # Number of insts issued each cycle
system.cpu0.iq.issued_per_cycle::0           26412483     24.54%     24.54% # Number of insts issued each cycle
system.cpu0.iq.issued_per_cycle::1           60345753     56.06%     80.60% # Number of insts issued each cycle
system.cpu0.iq.issued_per_cycle::2           20887369     19.40%    100.00% # Number of insts issued each cycle
system.cpu0.iq.issued_per_cycle::overflows            0      0.00%    100.00% # Number of insts issued each cycle
system.cpu0.iq.issued_per_cycle::min_value            0                       # Number of insts issued each cycle
system.cpu0.iq.issued_per_cycle::max_value            2                       # Number of insts issued each cycle
system.cpu0.iq.issued_per_cycle::total      107645605                       # Number of insts issued each cycle
system.cpu0.iq.fu_full::No_OpClass                  0      0.00%      0.00% # attempts to use FU when none available
system.cpu0.iq.fu_full::IntAlu               58594676     93.31%     93.31% # attempts to use FU when none available
system.cpu0.iq.fu_full::IntMult                     0      0.00%     93.31% # attempts to use FU when none available
system.cpu0.iq.fu_full::IntDiv                      0      0.00%     93.31% # attempts to use FU when none available
system.cpu0.iq.fu_full::FloatAdd                    0      0.00%     93.31% # attempts to use FU when none available
system.cpu0.iq.fu_full::FloatCmp                    0      0.00%     93.31% # attempts to use FU when none available
system.cpu0.iq.fu_full::FloatCvt                    0      0.00%     93.31% # attempts to use FU when none available
system.cpu0.iq.fu_full::FloatMult                   0      0.00%     93.31% # attempts to use FU when none available
system.cpu0.iq.fu_full::FloatMultAcc                0      0.00%     93.31% # attempts to use FU when none available
system.cpu0.iq.fu_full::FloatDiv                    0      0.00%     93.31% # attempts to use FU when none available
system.cpu0.iq.fu_full::FloatMisc                   0      0.00%     93.31% # attempts to use FU when none available
system.cpu0.iq.fu_full::FloatSqrt                   0      0.00%     93.31% # attempts to use FU when none available
system.cpu0.iq.fu_full::SimdAdd                     0      0.00%     93.31% # attempts to use FU when none available
system.cpu0.iq.fu_full::SimdAddAcc                  0      0.00%     93.31% # attempts to use FU when none available
system.cpu0.iq.fu_full::SimdAlu                     0      0.00%     93.31% # attempts to use FU when none available
system.cpu0.iq.fu_full::SimdCmp                     0      0.00%     93.31% # attempts to use FU when none available
system.cpu0.iq.fu_full::SimdCvt                     0      0.00%     93.31% # attempts to use FU when none available
system.cpu0.iq.fu_full::SimdMisc                    0      0.00%     93.31% # attempts to use FU when none available
system.cpu0.iq.fu_full::SimdMult                    0      0.00%     93.31% # attempts to use FU when none available
system.cpu0.iq.fu_full::SimdMultAcc                 0      0.00%     93.31% # attempts to use FU when none available
system.cpu0.iq.fu_full::SimdShift                   0      0.00%     93.31% # attempts to use FU when none available
system.cpu0.iq.fu_full::SimdShiftAcc                0      0.00%     93.31% # attempts to use FU when none available
system.cpu0.iq.fu_full::SimdSqrt                    0      0.00%     93.31% # attempts to use FU when none available
system.cpu0.iq.fu_full::SimdFloatAdd                0      0.00%     93.31% # attempts to use FU when none available
system.cpu0.iq.fu_full::SimdFloatAlu                0      0.00%     93.31% # attempts to use FU when none available
system.cpu0.iq.fu_full::SimdFloatCmp                0      0.00%     93.31% # attempts to use FU when none available
system.cpu0.iq.fu_full::SimdFloatCvt                0      0.00%     93.31% # attempts to use FU when none available
system.cpu0.iq.fu_full::SimdFloatDiv                0      0.00%     93.31% # attempts to use FU when none available
system.cpu0.iq.fu_full::SimdFloatMisc               0      0.00%     93.31% # attempts to use FU when none available
system.cpu0.iq.fu_full::SimdFloatMult               0      0.00%     93.31% # attempts to use FU when none available
system.cpu0.iq.fu_full::SimdFloatMultAcc            0      0.00%     93.31% # attempts to use FU when none available
system.cpu0.iq.fu_full::SimdFloatSqrt               0      0.00%     93.31% # attempts to use FU when none available
system.cpu0.iq.fu_full::MemRead               2551130      4.06%     97.37% # attempts to use FU when none available
system.cpu0.iq.fu_full::MemWrite              1650466      2.63%    100.00% # attempts to use FU when none available
system.cpu0.iq.fu_full::FloatMemRead                0      0.00%    100.00% # attempts to use FU when none available
system.cpu0.iq.fu_full::FloatMemWrite               0      0.00%    100.00% # attempts to use FU when none available
system.cpu0.iq.fu_full::IprAccess                   0      0.00%    100.00% # attempts to use FU when none available
system.cpu0.iq.fu_full::InstPrefetch                0      0.00%    100.00% # attempts to use FU when none available
system.cpu0.iq.FU_type_0::No_OpClass                0      0.00%      0.00% # Type of FU issued
system.cpu0.iq.FU_type_0::IntAlu             78723835     77.09%     77.09% # Type of FU issued
system.cpu0.iq.FU_type_0::IntMult              524539      0.51%     77.60% # Type of FU issued
system.cpu0.iq.FU_type_0::IntDiv                    0      0.00%     77.60% # Type of FU issued
system.cpu0.iq.FU_type_0::FloatAdd                  0      0.00%     77.60% # Type of FU issued
system.cpu0.iq.FU_type_0::FloatCmp                  0      0.00%     77.60% # Type of FU issued
system.cpu0.iq.FU_type_0::FloatCvt                  0      0.00%     77.60% # Type of FU issued
system.cpu0.iq.FU_type_0::FloatMult                 0      0.00%     77.60% # Type of FU issued
system.cpu0.iq.FU_type_0::FloatMultAcc              0      0.00%     77.60% # Type of FU issued
system.cpu0.iq.FU_type_0::FloatDiv                  0      0.00%     77.60% # Type of FU issued
system.cpu0.iq.FU_type_0::FloatMisc                 0      0.00%     77.60% # Type of FU issued
system.cpu0.iq.FU_type_0::FloatSqrt                 0      0.00%     77.60% # Type of FU issued
system.cpu0.iq.FU_type_0::SimdAdd                   0      0.00%     77.60% # Type of FU issued
system.cpu0.iq.FU_type_0::SimdAddAcc                0      0.00%     77.60% # Type of FU issued
system.cpu0.iq.FU_type_0::SimdAlu                   0      0.00%     77.60% # Type of FU issued
system.cpu0.iq.FU_type_0::SimdCmp                   0      0.00%     77.60% # Type of FU issued
system.cpu0.iq.FU_type_0::SimdCvt                   0      0.00%     77.60% # Type of FU issued
system.cpu0.iq.FU_type_0::SimdMisc                  0      0.00%     77.60% # Type of FU issued
system.cpu0.iq.FU_type_0::SimdMult                  0      0.00%     77.60% # Type of FU issued
system.cpu0.iq.FU_type_0::SimdMultAcc               0      0.00%     77.60% # Type of FU issued
system.cpu0.iq.FU_type_0::SimdShift                 0      0.00%     77.60% # Type of FU issued
system.cpu0.iq.FU_type_0::SimdShiftAcc              0      0.00%     77.60% # Type of FU issued
system.cpu0.iq.FU_type_0::SimdSqrt                  0      0.00%     77.60% # Type of FU issued
system.cpu0.iq.FU_type_0::SimdFloatAdd              0      0.00%     77.60% # Type of FU issued
system.cpu0.iq.FU_type_0::SimdFloatAlu              0      0.00%     77.60% # Type of FU issued
system.cpu0.iq.FU_type_0::SimdFloatCmp              0      0.00%     77.60% # Type of FU issued
system.cpu0.iq.FU_type_0::SimdFloatCvt              0      0.00%     77.60% # Type of FU issued
system.cpu0.iq.FU_type_0::SimdFloatDiv              0      0.00%     77.60% # Type of FU issued
system.cpu0.iq.FU_type_0::SimdFloatMisc         11308      0.01%     77.61% # Type of FU issued
system.cpu0.iq.FU_type_0::SimdFloatMult             0      0.00%     77.61% # Type of FU issued
system.cpu0.iq.FU_type_0::SimdFloatMultAcc            0      0.00%     77.61% # Type of FU issued
system.cpu0.iq.FU_type_0::SimdFloatSqrt             0      0.00%     77.61% # Type of FU issued
system.cpu0.iq.FU_type_0::MemRead            14077562     13.79%     91.40% # Type of FU issued
system.cpu0.iq.FU_type_0::MemWrite            8783231      8.60%    100.00% # Type of FU issued
system.cpu0.iq.FU_type_0::FloatMemRead              0      0.00%    100.00% # Type of FU issued
system.cpu0.iq.FU_type_0::FloatMemWrite            16      0.00%    100.00% # Type of FU issued
system.cpu0.iq.FU_type_0::IprAccess                 0      0.00%    100.00% # Type of FU issued
system.cpu0.iq.FU_type_0::InstPrefetch              0      0.00%    100.00% # Type of FU issued
system.cpu0.iq.FU_type_0::total             102120491                       # Type of FU issued
system.cpu0.iq.rate                          0.791388                       # Inst issue rate
system.cpu0.iq.fu_busy_cnt                   62796272                       # FU busy when requested
system.cpu0.iq.fu_busy_rate                  0.614923                       # FU busy rate (busy events/executed inst)
system.cpu0.iq.int_inst_queue_reads         375902336                       # Number of integer instruction queue reads
system.cpu0.iq.int_inst_queue_writes        120124491                       # Number of integer instruction queue writes
system.cpu0.iq.int_inst_queue_wakeup_accesses    101815009                       # Number of integer instruction queue wakeup accesses
system.cpu0.iq.fp_inst_queue_reads                 32                       # Number of floating instruction queue reads
system.cpu0.iq.fp_inst_queue_writes                16                       # Number of floating instruction queue writes
system.cpu0.iq.fp_inst_queue_wakeup_accesses           16                       # Number of floating instruction queue wakeup accesses
system.cpu0.iq.int_alu_accesses             164916747                       # Number of integer alu accesses
system.cpu0.iq.fp_alu_accesses                     16                       # Number of floating point alu accesses
system.cpu0.iew.lsq.thread0.forwLoads         1859536                       # Number of loads that had data forwarded from stores
system.cpu0.iew.lsq.thread0.invAddrLoads            0                       # Number of loads ignored due to an invalid address
system.cpu0.iew.lsq.thread0.squashedLoads       904098                       # Number of loads squashed
system.cpu0.iew.lsq.thread0.ignoredResponses          358                       # Number of memory responses ignored because the instruction is squashed
system.cpu0.iew.lsq.thread0.memOrderViolation         1629                       # Number of memory ordering violations
system.cpu0.iew.lsq.thread0.squashedStores       424453                       # Number of stores squashed
system.cpu0.iew.lsq.thread0.invAddrSwpfs            0                       # Number of software prefetches ignored due to an invalid address
system.cpu0.iew.lsq.thread0.blockedLoads            0                       # Number of blocked loads due to partial load-store forwarding
system.cpu0.iew.lsq.thread0.rescheduledLoads        85291                       # Number of loads that were rescheduled
system.cpu0.iew.lsq.thread0.cacheBlocked          921                       # Number of times an access to memory failed due to the cache being blocked
system.cpu0.iew.iewIdleCycles                       0                       # Number of cycles IEW is idle
system.cpu0.iew.iewSquashCycles                402843                       # Number of cycles IEW is squashing
system.cpu0.iew.iewBlockCycles                1036444                       # Number of cycles IEW is blocking
system.cpu0.iew.iewUnblockCycles                35461                       # Number of cycles IEW is unblocking
system.cpu0.iew.iewDispatchedInsts          110315821                       # Number of instructions dispatched to IQ
system.cpu0.iew.iewDispSquashedInsts            84097                       # Number of squashed instructions skipped by dispatch
system.cpu0.iew.iewDispLoadInsts             14487852                       # Number of dispatched load instructions
system.cpu0.iew.iewDispStoreInsts             9085332                       # Number of dispatched store instructions
system.cpu0.iew.iewDispNonSpecInsts              8775                       # Number of dispatched non-speculative instructions
system.cpu0.iew.iewIQFullEvents                  2154                       # Number of times the IQ has become full, causing a stall
system.cpu0.iew.iewLSQFullEvents                 8590                       # Number of times the LSQ has become full, causing a stall
system.cpu0.iew.memOrderViolationEvents          1629                       # Number of memory order violations
system.cpu0.iew.predictedTakenIncorrect        213026                       # Number of branches that were predicted taken incorrectly
system.cpu0.iew.predictedNotTakenIncorrect       208758                       # Number of branches that were predicted not taken incorrectly
system.cpu0.iew.branchMispredicts              421784                       # Number of branch mispredicts detected at execute
system.cpu0.iew.iewExecutedInsts            101975159                       # Number of executed instructions
system.cpu0.iew.iewExecLoadInsts             14036204                       # Number of load instructions executed
system.cpu0.iew.iewExecSquashedInsts           145332                       # Number of squashed instructions skipped in execute
system.cpu0.iew.exec_swp                            0                       # number of swp insts executed
system.cpu0.iew.exec_nop                           49                       # number of nop insts executed
system.cpu0.iew.exec_refs                    22799059                       # number of memory reference insts executed
system.cpu0.iew.exec_branches                15916928                       # Number of branches executed
system.cpu0.iew.exec_stores                   8762855                       # Number of stores executed
system.cpu0.iew.exec_rate                    0.790261                       # Inst execution rate
system.cpu0.iew.wb_sent                     101832722                       # cumulative count of insts sent to commit
system.cpu0.iew.wb_count                    101815025                       # cumulative count of insts written-back
system.cpu0.iew.wb_producers                 71593476                       # num instructions producing a value
system.cpu0.iew.wb_consumers                163328684                       # num instructions consuming a value
system.cpu0.iew.wb_rate                      0.789020                       # insts written-back per cycle
system.cpu0.iew.wb_fanout                    0.438340                       # average fanout of values written-back
system.cpu0.commit.commitSquashedInsts        9807243                       # The number of squashed insts skipped by commit
system.cpu0.commit.commitNonSpecStalls          17043                       # The number of times commit has been forced to stall to communicate backwards
system.cpu0.commit.branchMispredicts           399363                       # The number of times a branch was mispredicted
system.cpu0.commit.committed_per_cycle::samples    106236371                       # Number of insts commited each cycle
system.cpu0.commit.committed_per_cycle::mean     0.946085                       # Number of insts commited each cycle
system.cpu0.commit.committed_per_cycle::stdev     1.017805                       # Number of insts commited each cycle
system.cpu0.commit.committed_per_cycle::underflows            0      0.00%      0.00% # Number of insts commited each cycle
system.cpu0.commit.committed_per_cycle::0     31025294     29.20%     29.20% # Number of insts commited each cycle
system.cpu0.commit.committed_per_cycle::1     62009559     58.37%     87.57% # Number of insts commited each cycle
system.cpu0.commit.committed_per_cycle::2      8037983      7.57%     95.14% # Number of insts commited each cycle
system.cpu0.commit.committed_per_cycle::3      2497179      2.35%     97.49% # Number of insts commited each cycle
system.cpu0.commit.committed_per_cycle::4       946489      0.89%     98.38% # Number of insts commited each cycle
system.cpu0.commit.committed_per_cycle::5       253317      0.24%     98.62% # Number of insts commited each cycle
system.cpu0.commit.committed_per_cycle::6       485932      0.46%     99.08% # Number of insts commited each cycle
system.cpu0.commit.committed_per_cycle::7       881541      0.83%     99.91% # Number of insts commited each cycle
system.cpu0.commit.committed_per_cycle::8        99077      0.09%    100.00% # Number of insts commited each cycle
system.cpu0.commit.committed_per_cycle::overflows            0      0.00%    100.00% # Number of insts commited each cycle
system.cpu0.commit.committed_per_cycle::min_value            0                       # Number of insts commited each cycle
system.cpu0.commit.committed_per_cycle::max_value            8                       # Number of insts commited each cycle
system.cpu0.commit.committed_per_cycle::total    106236371                       # Number of insts commited each cycle
system.cpu0.commit.committedInsts            88940865                       # Number of instructions committed
system.cpu0.commit.committedOps             100508598                       # Number of ops (including micro ops) committed
system.cpu0.commit.swp_count                        0                       # Number of s/w prefetches committed
system.cpu0.commit.refs                      22244633                       # Number of memory references committed
system.cpu0.commit.loads                     13583754                       # Number of loads committed
system.cpu0.commit.membars                       8804                       # Number of memory barriers committed
system.cpu0.commit.branches                  15785937                       # Number of branches committed
system.cpu0.commit.fp_insts                        16                       # Number of committed floating point instructions.
system.cpu0.commit.int_insts                 90873591                       # Number of committed integer instructions.
system.cpu0.commit.function_calls             2565177                       # Number of function calls committed.
system.cpu0.commit.op_class_0::No_OpClass            0      0.00%      0.00% # Class of committed instruction
system.cpu0.commit.op_class_0::IntAlu        77747508     77.35%     77.35% # Class of committed instruction
system.cpu0.commit.op_class_0::IntMult         505149      0.50%     77.86% # Class of committed instruction
system.cpu0.commit.op_class_0::IntDiv               0      0.00%     77.86% # Class of committed instruction
system.cpu0.commit.op_class_0::FloatAdd             0      0.00%     77.86% # Class of committed instruction
system.cpu0.commit.op_class_0::FloatCmp             0      0.00%     77.86% # Class of committed instruction
system.cpu0.commit.op_class_0::FloatCvt             0      0.00%     77.86% # Class of committed instruction
system.cpu0.commit.op_class_0::FloatMult            0      0.00%     77.86% # Class of committed instruction
system.cpu0.commit.op_class_0::FloatMultAcc            0      0.00%     77.86% # Class of committed instruction
system.cpu0.commit.op_class_0::FloatDiv             0      0.00%     77.86% # Class of committed instruction
system.cpu0.commit.op_class_0::FloatMisc            0      0.00%     77.86% # Class of committed instruction
system.cpu0.commit.op_class_0::FloatSqrt            0      0.00%     77.86% # Class of committed instruction
system.cpu0.commit.op_class_0::SimdAdd              0      0.00%     77.86% # Class of committed instruction
system.cpu0.commit.op_class_0::SimdAddAcc            0      0.00%     77.86% # Class of committed instruction
system.cpu0.commit.op_class_0::SimdAlu              0      0.00%     77.86% # Class of committed instruction
system.cpu0.commit.op_class_0::SimdCmp              0      0.00%     77.86% # Class of committed instruction
system.cpu0.commit.op_class_0::SimdCvt              0      0.00%     77.86% # Class of committed instruction
system.cpu0.commit.op_class_0::SimdMisc             0      0.00%     77.86% # Class of committed instruction
system.cpu0.commit.op_class_0::SimdMult             0      0.00%     77.86% # Class of committed instruction
system.cpu0.commit.op_class_0::SimdMultAcc            0      0.00%     77.86% # Class of committed instruction
system.cpu0.commit.op_class_0::SimdShift            0      0.00%     77.86% # Class of committed instruction
system.cpu0.commit.op_class_0::SimdShiftAcc            0      0.00%     77.86% # Class of committed instruction
system.cpu0.commit.op_class_0::SimdSqrt             0      0.00%     77.86% # Class of committed instruction
system.cpu0.commit.op_class_0::SimdFloatAdd            0      0.00%     77.86% # Class of committed instruction
system.cpu0.commit.op_class_0::SimdFloatAlu            0      0.00%     77.86% # Class of committed instruction
system.cpu0.commit.op_class_0::SimdFloatCmp            0      0.00%     77.86% # Class of committed instruction
system.cpu0.commit.op_class_0::SimdFloatCvt            0      0.00%     77.86% # Class of committed instruction
system.cpu0.commit.op_class_0::SimdFloatDiv            0      0.00%     77.86% # Class of committed instruction
system.cpu0.commit.op_class_0::SimdFloatMisc        11308      0.01%     77.87% # Class of committed instruction
system.cpu0.commit.op_class_0::SimdFloatMult            0      0.00%     77.87% # Class of committed instruction
system.cpu0.commit.op_class_0::SimdFloatMultAcc            0      0.00%     77.87% # Class of committed instruction
system.cpu0.commit.op_class_0::SimdFloatSqrt            0      0.00%     77.87% # Class of committed instruction
system.cpu0.commit.op_class_0::MemRead       13583754     13.52%     91.38% # Class of committed instruction
system.cpu0.commit.op_class_0::MemWrite       8660863      8.62%    100.00% # Class of committed instruction
system.cpu0.commit.op_class_0::FloatMemRead            0      0.00%    100.00% # Class of committed instruction
system.cpu0.commit.op_class_0::FloatMemWrite           16      0.00%    100.00% # Class of committed instruction
system.cpu0.commit.op_class_0::IprAccess            0      0.00%    100.00% # Class of committed instruction
system.cpu0.commit.op_class_0::InstPrefetch            0      0.00%    100.00% # Class of committed instruction
system.cpu0.commit.op_class_0::total        100508598                       # Class of committed instruction
system.cpu0.commit.bw_lim_events                99077                       # number cycles where commit BW limit reached
system.cpu0.rob.rob_reads                   216426544                       # The number of ROB reads
system.cpu0.rob.rob_writes                  222041004                       # The number of ROB writes
system.cpu0.timesIdled                        1057812                       # Number of times that the entire CPU went into an idle state and unscheduled itself
system.cpu0.idleCycles                       21394198                       # Total number of cycles that the CPU has spent unscheduled due to idling
system.cpu0.committedInsts                   88940865                       # Number of Instructions Simulated
system.cpu0.committedOps                    100508598                       # Number of Ops (including micro ops) Simulated
system.cpu0.cpi                              1.450849                       # CPI: Cycles Per Instruction
system.cpu0.cpi_total                        1.450849                       # CPI: Total CPI of All Threads
system.cpu0.ipc                              0.689251                       # IPC: Instructions Per Cycle
system.cpu0.ipc_total                        0.689251                       # IPC: Total IPC of All Threads
system.cpu0.int_regfile_reads               119831900                       # number of integer regfile reads
system.cpu0.int_regfile_writes               70772185                       # number of integer regfile writes
system.cpu0.fp_regfile_reads                     1136                       # number of floating regfile reads
system.cpu0.cc_regfile_reads                350789143                       # number of cc regfile reads
system.cpu0.cc_regfile_writes                53123238                       # number of cc regfile writes
system.cpu0.misc_regfile_reads               22696869                       # number of misc regfile reads
system.cpu0.misc_regfile_writes                 13641                       # number of misc regfile writes
system.cpu0.dcache.tags.pwrStateResidencyTicks::UNDEFINED 129039802000                       # Cumulative time (in ticks) in various power states
system.cpu0.dcache.tags.replacements            67614                       # number of replacements
system.cpu0.dcache.tags.tagsinuse          121.938634                       # Cycle average of tags in use
system.cpu0.dcache.tags.total_refs           20042045                       # Total number of references to valid blocks.
system.cpu0.dcache.tags.sampled_refs            67742                       # Sample count of references to valid blocks.
system.cpu0.dcache.tags.avg_refs           295.858478                       # Average number of references to valid blocks.
system.cpu0.dcache.tags.warmup_cycle       1938160000                       # Cycle when the warmup percentage was hit.
system.cpu0.dcache.tags.occ_blocks::cpu0.data   121.938634                       # Average occupied blocks per requestor
system.cpu0.dcache.tags.occ_percent::cpu0.data     0.952646                       # Average percentage of cache occupancy
system.cpu0.dcache.tags.occ_percent::total     0.952646                       # Average percentage of cache occupancy
system.cpu0.dcache.tags.occ_task_id_blocks::1024          128                       # Occupied blocks per task id
system.cpu0.dcache.tags.age_task_id_blocks_1024::0           28                       # Occupied blocks per task id
system.cpu0.dcache.tags.age_task_id_blocks_1024::1            3                       # Occupied blocks per task id
system.cpu0.dcache.tags.age_task_id_blocks_1024::2           89                       # Occupied blocks per task id
system.cpu0.dcache.tags.age_task_id_blocks_1024::3            4                       # Occupied blocks per task id
system.cpu0.dcache.tags.age_task_id_blocks_1024::4            4                       # Occupied blocks per task id
system.cpu0.dcache.tags.occ_task_id_percent::1024            1                       # Percentage of cache occupancy per task id
system.cpu0.dcache.tags.tag_accesses         40371605                       # Number of tag accesses
system.cpu0.dcache.tags.data_accesses        40371605                       # Number of data accesses
system.cpu0.dcache.pwrStateResidencyTicks::UNDEFINED 129039802000                       # Cumulative time (in ticks) in various power states
system.cpu0.dcache.ReadReq_hits::cpu0.data     11553742                       # number of ReadReq hits
system.cpu0.dcache.ReadReq_hits::total       11553742                       # number of ReadReq hits
system.cpu0.dcache.WriteReq_hits::cpu0.data      8476448                       # number of WriteReq hits
system.cpu0.dcache.WriteReq_hits::total       8476448                       # number of WriteReq hits
system.cpu0.dcache.LoadLockedReq_hits::cpu0.data         5706                       # number of LoadLockedReq hits
system.cpu0.dcache.LoadLockedReq_hits::total         5706                       # number of LoadLockedReq hits
system.cpu0.dcache.StoreCondReq_hits::cpu0.data         4961                       # number of StoreCondReq hits
system.cpu0.dcache.StoreCondReq_hits::total         4961                       # number of StoreCondReq hits
system.cpu0.dcache.demand_hits::cpu0.data     20030190                       # number of demand (read+write) hits
system.cpu0.dcache.demand_hits::total        20030190                       # number of demand (read+write) hits
system.cpu0.dcache.overall_hits::cpu0.data     20030190                       # number of overall hits
system.cpu0.dcache.overall_hits::total       20030190                       # number of overall hits
system.cpu0.dcache.ReadReq_misses::cpu0.data        80002                       # number of ReadReq misses
system.cpu0.dcache.ReadReq_misses::total        80002                       # number of ReadReq misses
system.cpu0.dcache.WriteReq_misses::cpu0.data        28638                       # number of WriteReq misses
system.cpu0.dcache.WriteReq_misses::total        28638                       # number of WriteReq misses
system.cpu0.dcache.LoadLockedReq_misses::cpu0.data          632                       # number of LoadLockedReq misses
system.cpu0.dcache.LoadLockedReq_misses::total          632                       # number of LoadLockedReq misses
system.cpu0.dcache.StoreCondReq_misses::cpu0.data          962                       # number of StoreCondReq misses
system.cpu0.dcache.StoreCondReq_misses::total          962                       # number of StoreCondReq misses
system.cpu0.dcache.demand_misses::cpu0.data       108640                       # number of demand (read+write) misses
system.cpu0.dcache.demand_misses::total        108640                       # number of demand (read+write) misses
system.cpu0.dcache.overall_misses::cpu0.data       108640                       # number of overall misses
system.cpu0.dcache.overall_misses::total       108640                       # number of overall misses
system.cpu0.dcache.ReadReq_miss_latency::cpu0.data   3387005000                       # number of ReadReq miss cycles
system.cpu0.dcache.ReadReq_miss_latency::total   3387005000                       # number of ReadReq miss cycles
system.cpu0.dcache.WriteReq_miss_latency::cpu0.data   1191162799                       # number of WriteReq miss cycles
system.cpu0.dcache.WriteReq_miss_latency::total   1191162799                       # number of WriteReq miss cycles
system.cpu0.dcache.LoadLockedReq_miss_latency::cpu0.data     13566000                       # number of LoadLockedReq miss cycles
system.cpu0.dcache.LoadLockedReq_miss_latency::total     13566000                       # number of LoadLockedReq miss cycles
system.cpu0.dcache.StoreCondReq_miss_latency::cpu0.data     15616000                       # number of StoreCondReq miss cycles
system.cpu0.dcache.StoreCondReq_miss_latency::total     15616000                       # number of StoreCondReq miss cycles
system.cpu0.dcache.StoreCondFailReq_miss_latency::cpu0.data      3872000                       # number of StoreCondFailReq miss cycles
system.cpu0.dcache.StoreCondFailReq_miss_latency::total      3872000                       # number of StoreCondFailReq miss cycles
system.cpu0.dcache.demand_miss_latency::cpu0.data   4578167799                       # number of demand (read+write) miss cycles
system.cpu0.dcache.demand_miss_latency::total   4578167799                       # number of demand (read+write) miss cycles
system.cpu0.dcache.overall_miss_latency::cpu0.data   4578167799                       # number of overall miss cycles
system.cpu0.dcache.overall_miss_latency::total   4578167799                       # number of overall miss cycles
system.cpu0.dcache.ReadReq_accesses::cpu0.data     11633744                       # number of ReadReq accesses(hits+misses)
system.cpu0.dcache.ReadReq_accesses::total     11633744                       # number of ReadReq accesses(hits+misses)
system.cpu0.dcache.WriteReq_accesses::cpu0.data      8505086                       # number of WriteReq accesses(hits+misses)
system.cpu0.dcache.WriteReq_accesses::total      8505086                       # number of WriteReq accesses(hits+misses)
system.cpu0.dcache.LoadLockedReq_accesses::cpu0.data         6338                       # number of LoadLockedReq accesses(hits+misses)
system.cpu0.dcache.LoadLockedReq_accesses::total         6338                       # number of LoadLockedReq accesses(hits+misses)
system.cpu0.dcache.StoreCondReq_accesses::cpu0.data         5923                       # number of StoreCondReq accesses(hits+misses)
system.cpu0.dcache.StoreCondReq_accesses::total         5923                       # number of StoreCondReq accesses(hits+misses)
system.cpu0.dcache.demand_accesses::cpu0.data     20138830                       # number of demand (read+write) accesses
system.cpu0.dcache.demand_accesses::total     20138830                       # number of demand (read+write) accesses
system.cpu0.dcache.overall_accesses::cpu0.data     20138830                       # number of overall (read+write) accesses
system.cpu0.dcache.overall_accesses::total     20138830                       # number of overall (read+write) accesses
system.cpu0.dcache.ReadReq_miss_rate::cpu0.data     0.006877                       # miss rate for ReadReq accesses
system.cpu0.dcache.ReadReq_miss_rate::total     0.006877                       # miss rate for ReadReq accesses
system.cpu0.dcache.WriteReq_miss_rate::cpu0.data     0.003367                       # miss rate for WriteReq accesses
system.cpu0.dcache.WriteReq_miss_rate::total     0.003367                       # miss rate for WriteReq accesses
system.cpu0.dcache.LoadLockedReq_miss_rate::cpu0.data     0.099716                       # miss rate for LoadLockedReq accesses
system.cpu0.dcache.LoadLockedReq_miss_rate::total     0.099716                       # miss rate for LoadLockedReq accesses
system.cpu0.dcache.StoreCondReq_miss_rate::cpu0.data     0.162418                       # miss rate for StoreCondReq accesses
system.cpu0.dcache.StoreCondReq_miss_rate::total     0.162418                       # miss rate for StoreCondReq accesses
system.cpu0.dcache.demand_miss_rate::cpu0.data     0.005395                       # miss rate for demand accesses
system.cpu0.dcache.demand_miss_rate::total     0.005395                       # miss rate for demand accesses
system.cpu0.dcache.overall_miss_rate::cpu0.data     0.005395                       # miss rate for overall accesses
system.cpu0.dcache.overall_miss_rate::total     0.005395                       # miss rate for overall accesses
system.cpu0.dcache.ReadReq_avg_miss_latency::cpu0.data 42336.504087                       # average ReadReq miss latency
system.cpu0.dcache.ReadReq_avg_miss_latency::total 42336.504087                       # average ReadReq miss latency
system.cpu0.dcache.WriteReq_avg_miss_latency::cpu0.data 41593.784447                       # average WriteReq miss latency
system.cpu0.dcache.WriteReq_avg_miss_latency::total 41593.784447                       # average WriteReq miss latency
system.cpu0.dcache.LoadLockedReq_avg_miss_latency::cpu0.data 21465.189873                       # average LoadLockedReq miss latency
system.cpu0.dcache.LoadLockedReq_avg_miss_latency::total 21465.189873                       # average LoadLockedReq miss latency
system.cpu0.dcache.StoreCondReq_avg_miss_latency::cpu0.data 16232.848233                       # average StoreCondReq miss latency
system.cpu0.dcache.StoreCondReq_avg_miss_latency::total 16232.848233                       # average StoreCondReq miss latency
system.cpu0.dcache.StoreCondFailReq_avg_miss_latency::cpu0.data          inf                       # average StoreCondFailReq miss latency
system.cpu0.dcache.StoreCondFailReq_avg_miss_latency::total          inf                       # average StoreCondFailReq miss latency
system.cpu0.dcache.demand_avg_miss_latency::cpu0.data 42140.719799                       # average overall miss latency
system.cpu0.dcache.demand_avg_miss_latency::total 42140.719799                       # average overall miss latency
system.cpu0.dcache.overall_avg_miss_latency::cpu0.data 42140.719799                       # average overall miss latency
system.cpu0.dcache.overall_avg_miss_latency::total 42140.719799                       # average overall miss latency
system.cpu0.dcache.blocked_cycles::no_mshrs         3919                       # number of cycles access was blocked
system.cpu0.dcache.blocked_cycles::no_targets            0                       # number of cycles access was blocked
system.cpu0.dcache.blocked::no_mshrs              285                       # number of cycles access was blocked
system.cpu0.dcache.blocked::no_targets              0                       # number of cycles access was blocked
system.cpu0.dcache.avg_blocked_cycles::no_mshrs    13.750877                       # average number of cycles each access was blocked
system.cpu0.dcache.avg_blocked_cycles::no_targets          nan                       # average number of cycles each access was blocked
system.cpu0.dcache.writebacks::writebacks        16291                       # number of writebacks
system.cpu0.dcache.writebacks::total            16291                       # number of writebacks
system.cpu0.dcache.ReadReq_mshr_hits::cpu0.data        23299                       # number of ReadReq MSHR hits
system.cpu0.dcache.ReadReq_mshr_hits::total        23299                       # number of ReadReq MSHR hits
system.cpu0.dcache.WriteReq_mshr_hits::cpu0.data        16292                       # number of WriteReq MSHR hits
system.cpu0.dcache.WriteReq_mshr_hits::total        16292                       # number of WriteReq MSHR hits
system.cpu0.dcache.LoadLockedReq_mshr_hits::cpu0.data          276                       # number of LoadLockedReq MSHR hits
system.cpu0.dcache.LoadLockedReq_mshr_hits::total          276                       # number of LoadLockedReq MSHR hits
system.cpu0.dcache.demand_mshr_hits::cpu0.data        39591                       # number of demand (read+write) MSHR hits
system.cpu0.dcache.demand_mshr_hits::total        39591                       # number of demand (read+write) MSHR hits
system.cpu0.dcache.overall_mshr_hits::cpu0.data        39591                       # number of overall MSHR hits
system.cpu0.dcache.overall_mshr_hits::total        39591                       # number of overall MSHR hits
system.cpu0.dcache.ReadReq_mshr_misses::cpu0.data        56703                       # number of ReadReq MSHR misses
system.cpu0.dcache.ReadReq_mshr_misses::total        56703                       # number of ReadReq MSHR misses
system.cpu0.dcache.WriteReq_mshr_misses::cpu0.data        12346                       # number of WriteReq MSHR misses
system.cpu0.dcache.WriteReq_mshr_misses::total        12346                       # number of WriteReq MSHR misses
system.cpu0.dcache.LoadLockedReq_mshr_misses::cpu0.data          356                       # number of LoadLockedReq MSHR misses
system.cpu0.dcache.LoadLockedReq_mshr_misses::total          356                       # number of LoadLockedReq MSHR misses
system.cpu0.dcache.StoreCondReq_mshr_misses::cpu0.data          962                       # number of StoreCondReq MSHR misses
system.cpu0.dcache.StoreCondReq_mshr_misses::total          962                       # number of StoreCondReq MSHR misses
system.cpu0.dcache.demand_mshr_misses::cpu0.data        69049                       # number of demand (read+write) MSHR misses
system.cpu0.dcache.demand_mshr_misses::total        69049                       # number of demand (read+write) MSHR misses
system.cpu0.dcache.overall_mshr_misses::cpu0.data        69049                       # number of overall MSHR misses
system.cpu0.dcache.overall_mshr_misses::total        69049                       # number of overall MSHR misses
system.cpu0.dcache.ReadReq_mshr_miss_latency::cpu0.data   2460979004                       # number of ReadReq MSHR miss cycles
system.cpu0.dcache.ReadReq_mshr_miss_latency::total   2460979004                       # number of ReadReq MSHR miss cycles
system.cpu0.dcache.WriteReq_mshr_miss_latency::cpu0.data    527682234                       # number of WriteReq MSHR miss cycles
system.cpu0.dcache.WriteReq_mshr_miss_latency::total    527682234                       # number of WriteReq MSHR miss cycles
system.cpu0.dcache.LoadLockedReq_mshr_miss_latency::cpu0.data      7419000                       # number of LoadLockedReq MSHR miss cycles
system.cpu0.dcache.LoadLockedReq_mshr_miss_latency::total      7419000                       # number of LoadLockedReq MSHR miss cycles
system.cpu0.dcache.StoreCondReq_mshr_miss_latency::cpu0.data     13913996                       # number of StoreCondReq MSHR miss cycles
system.cpu0.dcache.StoreCondReq_mshr_miss_latency::total     13913996                       # number of StoreCondReq MSHR miss cycles
system.cpu0.dcache.StoreCondFailReq_mshr_miss_latency::cpu0.data      3650000                       # number of StoreCondFailReq MSHR miss cycles
system.cpu0.dcache.StoreCondFailReq_mshr_miss_latency::total      3650000                       # number of StoreCondFailReq MSHR miss cycles
system.cpu0.dcache.demand_mshr_miss_latency::cpu0.data   2988661238                       # number of demand (read+write) MSHR miss cycles
system.cpu0.dcache.demand_mshr_miss_latency::total   2988661238                       # number of demand (read+write) MSHR miss cycles
system.cpu0.dcache.overall_mshr_miss_latency::cpu0.data   2988661238                       # number of overall MSHR miss cycles
[...]
system.cpu7.icache.ReadReq_avg_miss_latency::cpu7.inst 44038.607934                       # average ReadReq miss latency
system.cpu7.icache.ReadReq_avg_miss_latency::total 44038.607934                       # average ReadReq miss latency
system.cpu7.icache.demand_avg_miss_latency::cpu7.inst 44038.607934                       # average overall miss latency
system.cpu7.icache.demand_avg_miss_latency::total 44038.607934                       # average overall miss latency
system.cpu7.icache.overall_avg_miss_latency::cpu7.inst 44038.607934                       # average overall miss latency
system.cpu7.icache.overall_avg_miss_latency::total 44038.607934                       # average overall miss latency
system.cpu7.icache.blocked_cycles::no_mshrs           57                       # number of cycles access was blocked
system.cpu7.icache.blocked_cycles::no_targets            0                       # number of cycles access was blocked
system.cpu7.icache.blocked::no_mshrs                6                       # number of cycles access was blocked
system.cpu7.icache.blocked::no_targets              0                       # number of cycles access was blocked
system.cpu7.icache.avg_blocked_cycles::no_mshrs     9.500000                       # average number of cycles each access was blocked
system.cpu7.icache.avg_blocked_cycles::no_targets          nan                       # average number of cycles each access was blocked
system.cpu7.icache.writebacks::writebacks       146814                       # number of writebacks
system.cpu7.icache.writebacks::total           146814                       # number of writebacks
system.cpu7.icache.ReadReq_mshr_hits::cpu7.inst        22763                       # number of ReadReq MSHR hits
system.cpu7.icache.ReadReq_mshr_hits::total        22763                       # number of ReadReq MSHR hits
system.cpu7.icache.demand_mshr_hits::cpu7.inst        22763                       # number of demand (read+write) MSHR hits
system.cpu7.icache.demand_mshr_hits::total        22763                       # number of demand (read+write) MSHR hits
system.cpu7.icache.overall_mshr_hits::cpu7.inst        22763                       # number of overall MSHR hits
system.cpu7.icache.overall_mshr_hits::total        22763                       # number of overall MSHR hits
system.cpu7.icache.ReadReq_mshr_misses::cpu7.inst       146943                       # number of ReadReq MSHR misses
system.cpu7.icache.ReadReq_mshr_misses::total       146943                       # number of ReadReq MSHR misses
system.cpu7.icache.demand_mshr_misses::cpu7.inst       146943                       # number of demand (read+write) MSHR misses
system.cpu7.icache.demand_mshr_misses::total       146943                       # number of demand (read+write) MSHR misses
system.cpu7.icache.overall_mshr_misses::cpu7.inst       146943                       # number of overall MSHR misses
system.cpu7.icache.overall_mshr_misses::total       146943                       # number of overall MSHR misses
system.cpu7.icache.ReadReq_mshr_miss_latency::cpu7.inst   6627851998                       # number of ReadReq MSHR miss cycles
system.cpu7.icache.ReadReq_mshr_miss_latency::total   6627851998                       # number of ReadReq MSHR miss cycles
system.cpu7.icache.demand_mshr_miss_latency::cpu7.inst   6627851998                       # number of demand (read+write) MSHR miss cycles
system.cpu7.icache.demand_mshr_miss_latency::total   6627851998                       # number of demand (read+write) MSHR miss cycles
system.cpu7.icache.overall_mshr_miss_latency::cpu7.inst   6627851998                       # number of overall MSHR miss cycles
system.cpu7.icache.overall_mshr_miss_latency::total   6627851998                       # number of overall MSHR miss cycles
system.cpu7.icache.ReadReq_mshr_miss_rate::cpu7.inst     0.015379                       # mshr miss rate for ReadReq accesses
system.cpu7.icache.ReadReq_mshr_miss_rate::total     0.015379                       # mshr miss rate for ReadReq accesses
system.cpu7.icache.demand_mshr_miss_rate::cpu7.inst     0.015379                       # mshr miss rate for demand accesses
system.cpu7.icache.demand_mshr_miss_rate::total     0.015379                       # mshr miss rate for demand accesses
system.cpu7.icache.overall_mshr_miss_rate::cpu7.inst     0.015379                       # mshr miss rate for overall accesses
system.cpu7.icache.overall_mshr_miss_rate::total     0.015379                       # mshr miss rate for overall accesses
system.cpu7.icache.ReadReq_avg_mshr_miss_latency::cpu7.inst 45104.918220                       # average ReadReq mshr miss latency
system.cpu7.icache.ReadReq_avg_mshr_miss_latency::total 45104.918220                       # average ReadReq mshr miss latency
system.cpu7.icache.demand_avg_mshr_miss_latency::cpu7.inst 45104.918220                       # average overall mshr miss latency
system.cpu7.icache.demand_avg_mshr_miss_latency::total 45104.918220                       # average overall mshr miss latency
system.cpu7.icache.overall_avg_mshr_miss_latency::cpu7.inst 45104.918220                       # average overall mshr miss latency
system.cpu7.icache.overall_avg_mshr_miss_latency::total 45104.918220                       # average overall mshr miss latency
system.cpu_voltage_domain.voltage                   1                       # Voltage in Volts
system.cpu_clk_domain.clock                       500                       # Clock period in ticks
system.membus.snoop_filter.tot_requests       6122155                       # Total number of requests made to the snoop filter.
system.membus.snoop_filter.hit_single_requests      2231358                       # Number of requests hitting in the snoop filter with a single holder of the requested data.
system.membus.snoop_filter.hit_multi_requests      2229679                       # Number of requests hitting in the snoop filter with multiple (>1) holders of the requested data.
system.membus.snoop_filter.tot_snoops               0                       # Total number of snoops made to the snoop filter.
system.membus.snoop_filter.hit_single_snoops            0                       # Number of snoops hitting in the snoop filter with a single holder of the requested data.
system.membus.snoop_filter.hit_multi_snoops            0                       # Number of snoops hitting in the snoop filter with multiple (>1) holders of the requested data.
system.membus.pwrStateResidencyTicks::UNDEFINED 129039802000                       # Cumulative time (in ticks) in various power states
system.membus.trans_dist::ReadResp            2795056                       # Transaction distribution
system.membus.trans_dist::ReadRespWithInvalidate           59                       # Transaction distribution
system.membus.trans_dist::WritebackDirty        66257                       # Transaction distribution
system.membus.trans_dist::WritebackClean      2633889                       # Transaction distribution
system.membus.trans_dist::CleanEvict           113396                       # Transaction distribution
system.membus.trans_dist::UpgradeReq             7285                       # Transaction distribution
system.membus.trans_dist::SCUpgradeReq          11073                       # Transaction distribution
system.membus.trans_dist::UpgradeResp           14973                       # Transaction distribution
system.membus.trans_dist::SCUpgradeFailReq          832                       # Transaction distribution
system.membus.trans_dist::UpgradeFailResp          832                       # Transaction distribution
system.membus.trans_dist::ReadExReq             53725                       # Transaction distribution
system.membus.trans_dist::ReadExResp            53725                       # Transaction distribution
system.membus.trans_dist::ReadCleanReq        2634934                       # Transaction distribution
system.membus.trans_dist::ReadSharedReq        160181                       # Transaction distribution
system.membus.pkt_count_system.cpu0.icache.mem_side::system.physmem.port      3511216                       # Packet count per connected master and slave (bytes)
system.membus.pkt_count_system.cpu0.dcache.mem_side::system.physmem.port       205713                       # Packet count per connected master and slave (bytes)
system.membus.pkt_count_system.cpu1.icache.mem_side::system.physmem.port       660994                       # Packet count per connected master and slave (bytes)
system.membus.pkt_count_system.cpu1.dcache.mem_side::system.physmem.port        52422                       # Packet count per connected master and slave (bytes)
system.membus.pkt_count_system.cpu2.icache.mem_side::system.physmem.port       662534                       # Packet count per connected master and slave (bytes)
system.membus.pkt_count_system.cpu2.dcache.mem_side::system.physmem.port        52915                       # Packet count per connected master and slave (bytes)
system.membus.pkt_count_system.cpu3.icache.mem_side::system.physmem.port       655822                       # Packet count per connected master and slave (bytes)
system.membus.pkt_count_system.cpu3.dcache.mem_side::system.physmem.port        58198                       # Packet count per connected master and slave (bytes)
system.membus.pkt_count_system.cpu4.icache.mem_side::system.physmem.port       658813                       # Packet count per connected master and slave (bytes)
system.membus.pkt_count_system.cpu4.dcache.mem_side::system.physmem.port        60078                       # Packet count per connected master and slave (bytes)
system.membus.pkt_count_system.cpu5.icache.mem_side::system.physmem.port       655276                       # Packet count per connected master and slave (bytes)
system.membus.pkt_count_system.cpu5.dcache.mem_side::system.physmem.port        56075                       # Packet count per connected master and slave (bytes)
system.membus.pkt_count_system.cpu6.icache.mem_side::system.physmem.port       658382                       # Packet count per connected master and slave (bytes)
system.membus.pkt_count_system.cpu6.dcache.mem_side::system.physmem.port        62446                       # Packet count per connected master and slave (bytes)
system.membus.pkt_count_system.cpu7.icache.mem_side::system.physmem.port       440699                       # Packet count per connected master and slave (bytes)
system.membus.pkt_count_system.cpu7.dcache.mem_side::system.physmem.port        44827                       # Packet count per connected master and slave (bytes)
system.membus.pkt_count::total                8496410                       # Packet count per connected master and slave (bytes)
system.membus.pkt_size_system.cpu0.icache.mem_side::system.physmem.port    149809152                       # Cumulative packet size per connected master and slave (bytes)
system.membus.pkt_size_system.cpu0.dcache.mem_side::system.physmem.port      5375360                       # Cumulative packet size per connected master and slave (bytes)
system.membus.pkt_size_system.cpu1.icache.mem_side::system.physmem.port     28199488                       # Cumulative packet size per connected master and slave (bytes)
system.membus.pkt_size_system.cpu1.dcache.mem_side::system.physmem.port      1336256                       # Cumulative packet size per connected master and slave (bytes)
system.membus.pkt_size_system.cpu2.icache.mem_side::system.physmem.port     28265280                       # Cumulative packet size per connected master and slave (bytes)
system.membus.pkt_size_system.cpu2.dcache.mem_side::system.physmem.port      1360448                       # Cumulative packet size per connected master and slave (bytes)
system.membus.pkt_size_system.cpu3.icache.mem_side::system.physmem.port     27979008                       # Cumulative packet size per connected master and slave (bytes)
system.membus.pkt_size_system.cpu3.dcache.mem_side::system.physmem.port      1672256                       # Cumulative packet size per connected master and slave (bytes)
system.membus.pkt_size_system.cpu4.icache.mem_side::system.physmem.port     28106432                       # Cumulative packet size per connected master and slave (bytes)
system.membus.pkt_size_system.cpu4.dcache.mem_side::system.physmem.port      1546752                       # Cumulative packet size per connected master and slave (bytes)
system.membus.pkt_size_system.cpu5.icache.mem_side::system.physmem.port     27955520                       # Cumulative packet size per connected master and slave (bytes)
system.membus.pkt_size_system.cpu5.dcache.mem_side::system.physmem.port      1610368                       # Cumulative packet size per connected master and slave (bytes)
system.membus.pkt_size_system.cpu6.icache.mem_side::system.physmem.port     28088064                       # Cumulative packet size per connected master and slave (bytes)
system.membus.pkt_size_system.cpu6.dcache.mem_side::system.physmem.port      1653824                       # Cumulative packet size per connected master and slave (bytes)
system.membus.pkt_size_system.cpu7.icache.mem_side::system.physmem.port     18800384                       # Cumulative packet size per connected master and slave (bytes)
system.membus.pkt_size_system.cpu7.dcache.mem_side::system.physmem.port      1200384                       # Cumulative packet size per connected master and slave (bytes)
system.membus.pkt_size::total               352958976                       # Cumulative packet size per connected master and slave (bytes)
system.membus.snoops                            49807                       # Total snoops (count)
system.membus.snoopTraffic                    2229376                       # Total snoop traffic (bytes)
system.membus.snoop_fanout::samples           3201668                       # Request fanout histogram
system.membus.snoop_fanout::mean             1.173231                       # Request fanout histogram
system.membus.snoop_fanout::stdev            1.793874                       # Request fanout histogram
system.membus.snoop_fanout::underflows              0      0.00%      0.00% # Request fanout histogram
system.membus.snoop_fanout::0                 1661494     51.89%     51.89% # Request fanout histogram
system.membus.snoop_fanout::1                  604616     18.88%     70.78% # Request fanout histogram
system.membus.snoop_fanout::2                  417589     13.04%     83.82% # Request fanout histogram
system.membus.snoop_fanout::3                  233532      7.29%     91.12% # Request fanout histogram
system.membus.snoop_fanout::4                   91783      2.87%     93.98% # Request fanout histogram
system.membus.snoop_fanout::5                   71758      2.24%     96.22% # Request fanout histogram
system.membus.snoop_fanout::6                   54897      1.71%     97.94% # Request fanout histogram
system.membus.snoop_fanout::7                   38433      1.20%     99.14% # Request fanout histogram
system.membus.snoop_fanout::8                    6093      0.19%     99.33% # Request fanout histogram
system.membus.snoop_fanout::9                    4926      0.15%     99.48% # Request fanout histogram
system.membus.snoop_fanout::10                   3859      0.12%     99.60% # Request fanout histogram
system.membus.snoop_fanout::11                   3348      0.10%     99.71% # Request fanout histogram
system.membus.snoop_fanout::12                   2930      0.09%     99.80% # Request fanout histogram
system.membus.snoop_fanout::13                   2911      0.09%     99.89% # Request fanout histogram
system.membus.snoop_fanout::14                   2412      0.08%     99.97% # Request fanout histogram
system.membus.snoop_fanout::15                   1087      0.03%    100.00% # Request fanout histogram
system.membus.snoop_fanout::16                      0      0.00%    100.00% # Request fanout histogram
system.membus.snoop_fanout::overflows               0      0.00%    100.00% # Request fanout histogram
system.membus.snoop_fanout::min_value               0                       # Request fanout histogram
system.membus.snoop_fanout::max_value              15                       # Request fanout histogram
system.membus.snoop_fanout::total             3201668                       # Request fanout histogram
system.membus.reqLayer0.occupancy         17087464844                       # Layer occupancy (ticks)
system.membus.reqLayer0.utilization              13.2                       # Layer utilization (%)
system.membus.respLayer1.occupancy         5852240000                       # Layer occupancy (ticks)
system.membus.respLayer1.utilization              4.5                       # Layer utilization (%)
system.membus.respLayer2.occupancy          348024842                       # Layer occupancy (ticks)
system.membus.respLayer2.utilization              0.3                       # Layer utilization (%)
system.membus.respLayer5.occupancy         1101885000                       # Layer occupancy (ticks)
system.membus.respLayer5.utilization              0.9                       # Layer utilization (%)
system.membus.respLayer6.occupancy          102309156                       # Layer occupancy (ticks)
system.membus.respLayer6.utilization              0.1                       # Layer utilization (%)
system.membus.respLayer9.occupancy         1104445000                       # Layer occupancy (ticks)
system.membus.respLayer9.utilization              0.9                       # Layer utilization (%)
system.membus.respLayer10.occupancy         102111913                       # Layer occupancy (ticks)
system.membus.respLayer10.utilization             0.1                       # Layer utilization (%)
system.membus.respLayer13.occupancy        1093250000                       # Layer occupancy (ticks)
system.membus.respLayer13.utilization             0.8                       # Layer utilization (%)
system.membus.respLayer14.occupancy         102965745                       # Layer occupancy (ticks)
system.membus.respLayer14.utilization             0.1                       # Layer utilization (%)
system.membus.respLayer17.occupancy        1098250000                       # Layer occupancy (ticks)
system.membus.respLayer17.utilization             0.9                       # Layer utilization (%)
system.membus.respLayer18.occupancy         116947502                       # Layer occupancy (ticks)
system.membus.respLayer18.utilization             0.1                       # Layer utilization (%)
system.membus.respLayer21.occupancy        1092355000                       # Layer occupancy (ticks)
system.membus.respLayer21.utilization             0.8                       # Layer utilization (%)
system.membus.respLayer22.occupancy         105447923                       # Layer occupancy (ticks)
system.membus.respLayer22.utilization             0.1                       # Layer utilization (%)
system.membus.respLayer25.occupancy        1097530000                       # Layer occupancy (ticks)
system.membus.respLayer25.utilization             0.9                       # Layer utilization (%)
system.membus.respLayer26.occupancy         120044625                       # Layer occupancy (ticks)
system.membus.respLayer26.utilization             0.1                       # Layer utilization (%)
system.membus.respLayer29.occupancy         734715000                       # Layer occupancy (ticks)
system.membus.respLayer29.utilization             0.6                       # Layer utilization (%)
system.membus.respLayer30.occupancy          92110430                       # Layer occupancy (ticks)
system.membus.respLayer30.utilization             0.1                       # Layer utilization (%)

---------- End Simulation Statistics   ----------
