
---------- Begin Simulation Statistics ----------
sim_seconds                                  0.096793                       # Number of seconds simulated
sim_ticks                                 96793008000                       # Number of ticks simulated
final_tick                                96793008000                       # Number of ticks from beginning of simulation (restored from checkpoints and never reset)
sim_freq                                 1000000000000                       # Frequency of simulated ticks
host_inst_rate                                 229055                       # Simulator instruction rate (inst/s)
host_op_rate                                   251642                       # Simulator op (including micro ops) rate (op/s)
host_tick_rate                               28799946                       # Simulator tick rate (ticks/s)
host_mem_usage                                 724616                       # Number of bytes of host memory used
host_seconds                                  3360.87                       # Real time elapsed on the host
sim_insts                                   769823784                       # Number of instructions simulated
sim_ops                                     845737008                       # Number of ops (including micro ops) simulated
system.voltage_domain.voltage                       1                       # Voltage in Volts
system.clk_domain.clock                          1000                       # Clock period in ticks
system.physmem.pwrStateResidencyTicks::UNDEFINED  96793008000                       # Cumulative time (in ticks) in various power states
system.physmem.bytes_read::cpu0.inst           261760                       # Number of bytes read from this memory
system.physmem.bytes_read::cpu0.data           222976                       # Number of bytes read from this memory
system.physmem.bytes_read::cpu1.inst            99200                       # Number of bytes read from this memory
system.physmem.bytes_read::cpu1.data           123392                       # Number of bytes read from this memory
system.physmem.bytes_read::cpu2.inst           110656                       # Number of bytes read from this memory
system.physmem.bytes_read::cpu2.data           116352                       # Number of bytes read from this memory
system.physmem.bytes_read::cpu3.inst           106176                       # Number of bytes read from this memory
system.physmem.bytes_read::cpu3.data           130816                       # Number of bytes read from this memory
system.physmem.bytes_read::cpu4.inst           140864                       # Number of bytes read from this memory
system.physmem.bytes_read::cpu4.data           144384                       # Number of bytes read from this memory
system.physmem.bytes_read::cpu5.inst           125632                       # Number of bytes read from this memory
system.physmem.bytes_read::cpu5.data           128512                       # Number of bytes read from this memory
system.physmem.bytes_read::cpu6.inst           133696                       # Number of bytes read from this memory
system.physmem.bytes_read::cpu6.data           128512                       # Number of bytes read from this memory
system.physmem.bytes_read::cpu7.inst           123200                       # Number of bytes read from this memory
system.physmem.bytes_read::cpu7.data            93504                       # Number of bytes read from this memory
system.physmem.bytes_read::total              2189632                       # Number of bytes read from this memory
system.physmem.bytes_inst_read::cpu0.inst       261760                       # Number of instructions bytes read from this memory
system.physmem.bytes_inst_read::cpu1.inst        99200                       # Number of instructions bytes read from this memory
system.physmem.bytes_inst_read::cpu2.inst       110656                       # Number of instructions bytes read from this memory
system.physmem.bytes_inst_read::cpu3.inst       106176                       # Number of instructions bytes read from this memory
system.physmem.bytes_inst_read::cpu4.inst       140864                       # Number of instructions bytes read from this memory
system.physmem.bytes_inst_read::cpu5.inst       125632                       # Number of instructions bytes read from this memory
system.physmem.bytes_inst_read::cpu6.inst       133696                       # Number of instructions bytes read from this memory
system.physmem.bytes_inst_read::cpu7.inst       123200                       # Number of instructions bytes read from this memory
system.physmem.bytes_inst_read::total         1101184                       # Number of instructions bytes read from this memory
system.physmem.bytes_written::writebacks       606144                       # Number of bytes written to this memory
system.physmem.bytes_written::total            606144                       # Number of bytes written to this memory
system.physmem.num_reads::cpu0.inst              4090                       # Number of read requests responded to by this memory
system.physmem.num_reads::cpu0.data              3484                       # Number of read requests responded to by this memory
system.physmem.num_reads::cpu1.inst              1550                       # Number of read requests responded to by this memory
system.physmem.num_reads::cpu1.data              1928                       # Number of read requests responded to by this memory
system.physmem.num_reads::cpu2.inst              1729                       # Number of read requests responded to by this memory
system.physmem.num_reads::cpu2.data              1818                       # Number of read requests responded to by this memory
system.physmem.num_reads::cpu3.inst              1659                       # Number of read requests responded to by this memory
system.physmem.num_reads::cpu3.data              2044                       # Number of read requests responded to by this memory
system.physmem.num_reads::cpu4.inst              2201                       # Number of read requests responded to by this memory
system.physmem.num_reads::cpu4.data              2256                       # Number of read requests responded to by this memory
system.physmem.num_reads::cpu5.inst              1963                       # Number of read requests responded to by this memory
system.physmem.num_reads::cpu5.data              2008                       # Number of read requests responded to by this memory
system.physmem.num_reads::cpu6.inst              2089                       # Number of read requests responded to by this memory
system.physmem.num_reads::cpu6.data              2008                       # Number of read requests responded to by this memory
system.physmem.num_reads::cpu7.inst              1925                       # Number of read requests responded to by this memory
system.physmem.num_reads::cpu7.data              1461                       # Number of read requests responded to by this memory
system.physmem.num_reads::total                 34213                       # Number of read requests responded to by this memory
system.physmem.num_writes::writebacks            9471                       # Number of write requests responded to by this memory
system.physmem.num_writes::total                 9471                       # Number of write requests responded to by this memory
system.physmem.bw_read::cpu0.inst             2704328                       # Total read bandwidth from this memory (bytes/s)
system.physmem.bw_read::cpu0.data             2303637                       # Total read bandwidth from this memory (bytes/s)
system.physmem.bw_read::cpu1.inst             1024867                       # Total read bandwidth from this memory (bytes/s)
system.physmem.bw_read::cpu1.data             1274803                       # Total read bandwidth from this memory (bytes/s)
system.physmem.bw_read::cpu2.inst             1143223                       # Total read bandwidth from this memory (bytes/s)
system.physmem.bw_read::cpu2.data             1202070                       # Total read bandwidth from this memory (bytes/s)
system.physmem.bw_read::cpu3.inst             1096939                       # Total read bandwidth from this memory (bytes/s)
system.physmem.bw_read::cpu3.data             1351503                       # Total read bandwidth from this memory (bytes/s)
system.physmem.bw_read::cpu4.inst             1455312                       # Total read bandwidth from this memory (bytes/s)
system.physmem.bw_read::cpu4.data             1491678                       # Total read bandwidth from this memory (bytes/s)
system.physmem.bw_read::cpu5.inst             1297945                       # Total read bandwidth from this memory (bytes/s)
system.physmem.bw_read::cpu5.data             1327699                       # Total read bandwidth from this memory (bytes/s)
system.physmem.bw_read::cpu6.inst             1381257                       # Total read bandwidth from this memory (bytes/s)
system.physmem.bw_read::cpu6.data             1327699                       # Total read bandwidth from this memory (bytes/s)
system.physmem.bw_read::cpu7.inst             1272819                       # Total read bandwidth from this memory (bytes/s)
system.physmem.bw_read::cpu7.data              966020                       # Total read bandwidth from this memory (bytes/s)
system.physmem.bw_read::total                22621799                       # Total read bandwidth from this memory (bytes/s)
system.physmem.bw_inst_read::cpu0.inst        2704328                       # Instruction read bandwidth from this memory (bytes/s)
system.physmem.bw_inst_read::cpu1.inst        1024867                       # Instruction read bandwidth from this memory (bytes/s)
system.physmem.bw_inst_read::cpu2.inst        1143223                       # Instruction read bandwidth from this memory (bytes/s)
system.physmem.bw_inst_read::cpu3.inst        1096939                       # Instruction read bandwidth from this memory (bytes/s)
system.physmem.bw_inst_read::cpu4.inst        1455312                       # Instruction read bandwidth from this memory (bytes/s)
system.physmem.bw_inst_read::cpu5.inst        1297945                       # Instruction read bandwidth from this memory (bytes/s)
system.physmem.bw_inst_read::cpu6.inst        1381257                       # Instruction read bandwidth from this memory (bytes/s)
system.physmem.bw_inst_read::cpu7.inst        1272819                       # Instruction read bandwidth from this memory (bytes/s)
system.physmem.bw_inst_read::total           11376690                       # Instruction read bandwidth from this memory (bytes/s)
system.physmem.bw_write::writebacks           6262271                       # Write bandwidth from this memory (bytes/s)
system.physmem.bw_write::total                6262271                       # Write bandwidth from this memory (bytes/s)
system.physmem.bw_total::writebacks           6262271                       # Total bandwidth to/from this memory (bytes/s)
system.physmem.bw_total::cpu0.inst            2704328                       # Total bandwidth to/from this memory (bytes/s)
system.physmem.bw_total::cpu0.data            2303637                       # Total bandwidth to/from this memory (bytes/s)
system.physmem.bw_total::cpu1.inst            1024867                       # Total bandwidth to/from this memory (bytes/s)
system.physmem.bw_total::cpu1.data            1274803                       # Total bandwidth to/from this memory (bytes/s)
system.physmem.bw_total::cpu2.inst            1143223                       # Total bandwidth to/from this memory (bytes/s)
system.physmem.bw_total::cpu2.data            1202070                       # Total bandwidth to/from this memory (bytes/s)
system.physmem.bw_total::cpu3.inst            1096939                       # Total bandwidth to/from this memory (bytes/s)
system.physmem.bw_total::cpu3.data            1351503                       # Total bandwidth to/from this memory (bytes/s)
system.physmem.bw_total::cpu4.inst            1455312                       # Total bandwidth to/from this memory (bytes/s)
system.physmem.bw_total::cpu4.data            1491678                       # Total bandwidth to/from this memory (bytes/s)
system.physmem.bw_total::cpu5.inst            1297945                       # Total bandwidth to/from this memory (bytes/s)
system.physmem.bw_total::cpu5.data            1327699                       # Total bandwidth to/from this memory (bytes/s)
system.physmem.bw_total::cpu6.inst            1381257                       # Total bandwidth to/from this memory (bytes/s)
system.physmem.bw_total::cpu6.data            1327699                       # Total bandwidth to/from this memory (bytes/s)
system.physmem.bw_total::cpu7.inst            1272819                       # Total bandwidth to/from this memory (bytes/s)
system.physmem.bw_total::cpu7.data             966020                       # Total bandwidth to/from this memory (bytes/s)
system.physmem.bw_total::total               28884070                       # Total bandwidth to/from this memory (bytes/s)
system.pwrStateResidencyTicks::UNDEFINED  96793008000                       # Cumulative time (in ticks) in various power states
system.cpu0.branchPred.lookups               18181833                       # Number of BP lookups
system.cpu0.branchPred.condPredicted         11122424                       # Number of conditional branches predicted
system.cpu0.branchPred.condIncorrect           435699                       # Number of conditional branches incorrect
system.cpu0.branchPred.BTBLookups             9883772                       # Number of BTB lookups
system.cpu0.branchPred.BTBHits                8573518                       # Number of BTB hits
system.cpu0.branchPred.BTBCorrect                   0                       # Number of correct BTB predictions (this stat may not work properly.
system.cpu0.branchPred.BTBHitPct            86.743381                       # BTB Hit Percentage
system.cpu0.branchPred.usedRAS                2269016                       # Number of times the RAS was used to get a target.
system.cpu0.branchPred.RASInCorrect             40487                       # Number of incorrect RAS predictions.
system.cpu0.branchPred.indirectLookups         563268                       # Number of indirect predictor lookups.
system.cpu0.branchPred.indirectHits            559081                       # Number of indirect target hits.
system.cpu0.branchPred.indirectMisses            4187                       # Number of indirect misses.
system.cpu0.branchPredindirectMispredicted        10347                       # Number of mispredicted indirect branches.
system.cpu0.dstage2_mmu.stage2_tlb.walker.pwrStateResidencyTicks::UNDEFINED  96793008000                       # Cumulative time (in ticks) in various power states
system.cpu0.dstage2_mmu.stage2_tlb.walker.walks            0                       # Table walker walks requested
system.cpu0.dstage2_mmu.stage2_tlb.walker.walkRequestOrigin_Requested::Data            0                       # Table walker requests started/completed, data/inst
system.cpu0.dstage2_mmu.stage2_tlb.walker.walkRequestOrigin_Requested::Inst            0                       # Table walker requests started/completed, data/inst
system.cpu0.dstage2_mmu.stage2_tlb.walker.walkRequestOrigin_Requested::total            0                       # Table walker requests started/completed, data/inst
system.cpu0.dstage2_mmu.stage2_tlb.walker.walkRequestOrigin_Completed::Data            0                       # Table walker requests started/completed, data/inst
system.cpu0.dstage2_mmu.stage2_tlb.walker.walkRequestOrigin_Completed::Inst            0                       # Table walker requests started/completed, data/inst
system.cpu0.dstage2_mmu.stage2_tlb.walker.walkRequestOrigin_Completed::total            0                       # Table walker requests started/completed, data/inst
system.cpu0.dstage2_mmu.stage2_tlb.walker.walkRequestOrigin::total            0                       # Table walker requests started/completed, data/inst
system.cpu0.dstage2_mmu.stage2_tlb.inst_hits            0                       # ITB inst hits
system.cpu0.dstage2_mmu.stage2_tlb.inst_misses            0                       # ITB inst misses
system.cpu0.dstage2_mmu.stage2_tlb.read_hits            0                       # DTB read hits
system.cpu0.dstage2_mmu.stage2_tlb.read_misses            0                       # DTB read misses
system.cpu0.dstage2_mmu.stage2_tlb.write_hits            0                       # DTB write hits
system.cpu0.dstage2_mmu.stage2_tlb.write_misses            0                       # DTB write misses
system.cpu0.dstage2_mmu.stage2_tlb.flush_tlb            0                       # Number of times complete TLB was flushed
system.cpu0.dstage2_mmu.stage2_tlb.flush_tlb_mva            0                       # Number of times TLB was flushed by MVA
system.cpu0.dstage2_mmu.stage2_tlb.flush_tlb_mva_asid            0                       # Number of times TLB was flushed by MVA & ASID
system.cpu0.dstage2_mmu.stage2_tlb.flush_tlb_asid            0                       # Number of times TLB was flushed by ASID
system.cpu0.dstage2_mmu.stage2_tlb.flush_entries            0                       # Number of entries that have been flushed from TLB
system.cpu0.dstage2_mmu.stage2_tlb.align_faults            0                       # Number of TLB faults due to alignment restrictions
system.cpu0.dstage2_mmu.stage2_tlb.prefetch_faults            0                       # Number of TLB faults due to prefetch
system.cpu0.dstage2_mmu.stage2_tlb.domain_faults            0                       # Number of TLB faults due to domain restrictions
system.cpu0.dstage2_mmu.stage2_tlb.perms_faults            0                       # Number of TLB faults due to permissions restrictions
system.cpu0.dstage2_mmu.stage2_tlb.read_accesses            0                       # DTB read accesses
system.cpu0.dstage2_mmu.stage2_tlb.write_accesses            0                       # DTB write accesses
system.cpu0.dstage2_mmu.stage2_tlb.inst_accesses            0                       # ITB inst accesses
system.cpu0.dstage2_mmu.stage2_tlb.hits             0                       # DTB hits
system.cpu0.dstage2_mmu.stage2_tlb.misses            0                       # DTB misses
system.cpu0.dstage2_mmu.stage2_tlb.accesses            0                       # DTB accesses
system.cpu0.dtb.walker.pwrStateResidencyTicks::UNDEFINED  96793008000                       # Cumulative time (in ticks) in various power states
system.cpu0.dtb.walker.walks                        0                       # Table walker walks requested
system.cpu0.dtb.walker.walkRequestOrigin_Requested::Data            0                       # Table walker requests started/completed, data/inst
system.cpu0.dtb.walker.walkRequestOrigin_Requested::Inst            0                       # Table walker requests started/completed, data/inst
system.cpu0.dtb.walker.walkRequestOrigin_Requested::total            0                       # Table walker requests started/completed, data/inst
system.cpu0.dtb.walker.walkRequestOrigin_Completed::Data            0                       # Table walker requests started/completed, data/inst
system.cpu0.dtb.walker.walkRequestOrigin_Completed::Inst            0                       # Table walker requests started/completed, data/inst
system.cpu0.dtb.walker.walkRequestOrigin_Completed::total            0                       # Table walker requests started/completed, data/inst
system.cpu0.dtb.walker.walkRequestOrigin::total            0                       # Table walker requests started/completed, data/inst
system.cpu0.dtb.inst_hits                           0                       # ITB inst hits
system.cpu0.dtb.inst_misses                         0                       # ITB inst misses
system.cpu0.dtb.read_hits                           0                       # DTB read hits
system.cpu0.dtb.read_misses                         0                       # DTB read misses
system.cpu0.dtb.write_hits                          0                       # DTB write hits
system.cpu0.dtb.write_misses                        0                       # DTB write misses
system.cpu0.dtb.flush_tlb                           0                       # Number of times complete TLB was flushed
system.cpu0.dtb.flush_tlb_mva                       0                       # Number of times TLB was flushed by MVA
system.cpu0.dtb.flush_tlb_mva_asid                  0                       # Number of times TLB was flushed by MVA & ASID
system.cpu0.dtb.flush_tlb_asid                      0                       # Number of times TLB was flushed by ASID
system.cpu0.dtb.flush_entries                       0                       # Number of entries that have been flushed from TLB
system.cpu0.dtb.align_faults                        0                       # Number of TLB faults due to alignment restrictions
system.cpu0.dtb.prefetch_faults                     0                       # Number of TLB faults due to prefetch
system.cpu0.dtb.domain_faults                       0                       # Number of TLB faults due to domain restrictions
system.cpu0.dtb.perms_faults                        0                       # Number of TLB faults due to permissions restrictions
system.cpu0.dtb.read_accesses                       0                       # DTB read accesses
system.cpu0.dtb.write_accesses                      0                       # DTB write accesses
system.cpu0.dtb.inst_accesses                       0                       # ITB inst accesses
system.cpu0.dtb.hits                                0                       # DTB hits
system.cpu0.dtb.misses                              0                       # DTB misses
system.cpu0.dtb.accesses                            0                       # DTB accesses
system.cpu0.istage2_mmu.stage2_tlb.walker.pwrStateResidencyTicks::UNDEFINED  96793008000                       # Cumulative time (in ticks) in various power states
system.cpu0.istage2_mmu.stage2_tlb.walker.walks            0                       # Table walker walks requested
system.cpu0.istage2_mmu.stage2_tlb.walker.walkRequestOrigin_Requested::Data            0                       # Table walker requests started/completed, data/inst
system.cpu0.istage2_mmu.stage2_tlb.walker.walkRequestOrigin_Requested::Inst            0                       # Table walker requests started/completed, data/inst
system.cpu0.istage2_mmu.stage2_tlb.walker.walkRequestOrigin_Requested::total            0                       # Table walker requests started/completed, data/inst
system.cpu0.istage2_mmu.stage2_tlb.walker.walkRequestOrigin_Completed::Data            0                       # Table walker requests started/completed, data/inst
system.cpu0.istage2_mmu.stage2_tlb.walker.walkRequestOrigin_Completed::Inst            0                       # Table walker requests started/completed, data/inst
system.cpu0.istage2_mmu.stage2_tlb.walker.walkRequestOrigin_Completed::total            0                       # Table walker requests started/completed, data/inst
system.cpu0.istage2_mmu.stage2_tlb.walker.walkRequestOrigin::total            0                       # Table walker requests started/completed, data/inst
system.cpu0.istage2_mmu.stage2_tlb.inst_hits            0                       # ITB inst hits
system.cpu0.istage2_mmu.stage2_tlb.inst_misses            0                       # ITB inst misses
system.cpu0.istage2_mmu.stage2_tlb.read_hits            0                       # DTB read hits
system.cpu0.istage2_mmu.stage2_tlb.read_misses            0                       # DTB read misses
system.cpu0.istage2_mmu.stage2_tlb.write_hits            0                       # DTB write hits
system.cpu0.istage2_mmu.stage2_tlb.write_misses            0                       # DTB write misses
system.cpu0.istage2_mmu.stage2_tlb.flush_tlb            0                       # Number of times complete TLB was flushed
system.cpu0.istage2_mmu.stage2_tlb.flush_tlb_mva            0                       # Number of times TLB was flushed by MVA
system.cpu0.istage2_mmu.stage2_tlb.flush_tlb_mva_asid            0                       # Number of times TLB was flushed by MVA & ASID
system.cpu0.istage2_mmu.stage2_tlb.flush_tlb_asid            0                       # Number of times TLB was flushed by ASID
system.cpu0.istage2_mmu.stage2_tlb.flush_entries            0                       # Number of entries that have been flushed from TLB
system.cpu0.istage2_mmu.stage2_tlb.align_faults            0                       # Number of TLB faults due to alignment restrictions
system.cpu0.istage2_mmu.stage2_tlb.prefetch_faults            0                       # Number of TLB faults due to prefetch
system.cpu0.istage2_mmu.stage2_tlb.domain_faults            0                       # Number of TLB faults due to domain restrictions
system.cpu0.istage2_mmu.stage2_tlb.perms_faults            0                       # Number of TLB faults due to permissions restrictions
system.cpu0.istage2_mmu.stage2_tlb.read_accesses            0                       # DTB read accesses
system.cpu0.istage2_mmu.stage2_tlb.write_accesses            0                       # DTB write accesses
system.cpu0.istage2_mmu.stage2_tlb.inst_accesses            0                       # ITB inst accesses
system.cpu0.istage2_mmu.stage2_tlb.hits             0                       # DTB hits
system.cpu0.istage2_mmu.stage2_tlb.misses            0                       # DTB misses
system.cpu0.istage2_mmu.stage2_tlb.accesses            0                       # DTB accesses
system.cpu0.itb.walker.pwrStateResidencyTicks::UNDEFINED  96793008000                       # Cumulative time (in ticks) in various power states
system.cpu0.itb.walker.walks                        0                       # Table walker walks requested
system.cpu0.itb.walker.walkRequestOrigin_Requested::Data            0                       # Table walker requests started/completed, data/inst
system.cpu0.itb.walker.walkRequestOrigin_Requested::Inst            0                       # Table walker requests started/completed, data/inst
system.cpu0.itb.walker.walkRequestOrigin_Requested::total            0                       # Table walker requests started/completed, data/inst
system.cpu0.itb.walker.walkRequestOrigin_Completed::Data            0                       # Table walker requests started/completed, data/inst
system.cpu0.itb.walker.walkRequestOrigin_Completed::Inst            0                       # Table walker requests started/completed, data/inst
system.cpu0.itb.walker.walkRequestOrigin_Completed::total            0                       # Table walker requests started/completed, data/inst
system.cpu0.itb.walker.walkRequestOrigin::total            0                       # Table walker requests started/completed, data/inst
system.cpu0.itb.inst_hits                           0                       # ITB inst hits
system.cpu0.itb.inst_misses                         0                       # ITB inst misses
system.cpu0.itb.read_hits                           0                       # DTB read hits
system.cpu0.itb.read_misses                         0                       # DTB read misses
system.cpu0.itb.write_hits                          0                       # DTB write hits
system.cpu0.itb.write_misses                        0                       # DTB write misses
system.cpu0.itb.flush_tlb                           0                       # Number of times complete TLB was flushed
system.cpu0.itb.flush_tlb_mva                       0                       # Number of times TLB was flushed by MVA
system.cpu0.itb.flush_tlb_mva_asid                  0                       # Number of times TLB was flushed by MVA & ASID
system.cpu0.itb.flush_tlb_asid                      0                       # Number of times TLB was flushed by ASID
system.cpu0.itb.flush_entries                       0                       # Number of entries that have been flushed from TLB
system.cpu0.itb.align_faults                        0                       # Number of TLB faults due to alignment restrictions
system.cpu0.itb.prefetch_faults                     0                       # Number of TLB faults due to prefetch
system.cpu0.itb.domain_faults                       0                       # Number of TLB faults due to domain restrictions
system.cpu0.itb.perms_faults                        0                       # Number of TLB faults due to permissions restrictions
system.cpu0.itb.read_accesses                       0                       # DTB read accesses
system.cpu0.itb.write_accesses                      0                       # DTB write accesses
system.cpu0.itb.inst_accesses                       0                       # ITB inst accesses
system.cpu0.itb.hits                                0                       # DTB hits
system.cpu0.itb.misses                              0                       # DTB misses
system.cpu0.itb.accesses                            0                       # DTB accesses
system.cpu0.workload.num_syscalls              251437                       # Number of system calls
system.cpu0.pwrStateResidencyTicks::ON    96793008000                       # Cumulative time (in ticks) in various power states
system.cpu0.numCycles                        96793009                       # number of cpu cycles simulated
system.cpu0.numWorkItemsStarted                     0                       # number of work items this cpu started
system.cpu0.numWorkItemsCompleted                   0                       # number of work items this cpu completed
system.cpu0.fetch.icacheStallCycles          29446185                       # Number of cycles fetch is stalled on an Icache miss
system.cpu0.fetch.Insts                     101912550                       # Number of instructions fetch has processed
system.cpu0.fetch.Branches                   18181833                       # Number of branches that fetch encountered
system.cpu0.fetch.predictedBranches          11401615                       # Number of branches that fetch has predicted taken
system.cpu0.fetch.Cycles                     66773258                       # Number of cycles fetch has run and was not squashing or blocked
system.cpu0.fetch.SquashCycles                 879037                       # Number of cycles fetch has spent squashing
system.cpu0.fetch.MiscStallCycles                   7                       # Number of cycles fetch has spent waiting on interrupts, or bad addresses, or out of MSHRs
system.cpu0.fetch.PendingTrapStallCycles          353                       # Number of stall cycles due to pending traps
system.cpu0.fetch.CacheLines                 14141575                       # Number of cache lines fetched
system.cpu0.fetch.IcacheSquashes               114999                       # Number of outstanding Icache misses that were squashed
system.cpu0.fetch.rateDist::samples          96659321                       # Number of instructions fetched each cycle (Total)
system.cpu0.fetch.rateDist::mean             1.191282                       # Number of instructions fetched each cycle (Total)
system.cpu0.fetch.rateDist::stdev            0.929384                       # Number of instructions fetched each cycle (Total)
system.cpu0.fetch.rateDist::underflows              0      0.00%      0.00% # Number of instructions fetched each cycle (Total)
system.cpu0.fetch.rateDist::0                34268664     35.45%     35.45% # Number of instructions fetched each cycle (Total)
system.cpu0.fetch.rateDist::1                 9632767      9.97%     45.42% # Number of instructions fetched each cycle (Total)
system.cpu0.fetch.rateDist::2                52757890     54.58%    100.00% # Number of instructions fetched each cycle (Total)
system.cpu0.fetch.rateDist::overflows               0      0.00%    100.00% # Number of instructions fetched each cycle (Total)
system.cpu0.fetch.rateDist::min_value               0                       # Number of instructions fetched each cycle (Total)
system.cpu0.fetch.rateDist::max_value               2                       # Number of instructions fetched each cycle (Total)
system.cpu0.fetch.rateDist::total            96659321                       # Number of instructions fetched each cycle (Total)
system.cpu0.fetch.branchRate                 0.187842                       # Number of branch fetches per cycle
system.cpu0.fetch.rate                       1.052892                       # Number of inst fetches per cycle
system.cpu0.decode.IdleCycles                26966050                       # Number of cycles decode is idle
system.cpu0.decode.BlockedCycles             10796783                       # Number of cycles decode is blocked
system.cpu0.decode.RunCycles                 47257352                       # Number of cycles decode is running
system.cpu0.decode.UnblockCycles             11231496                       # Number of cycles decode is unblocking
system.cpu0.decode.SquashCycles                407640                       # Number of cycles decode is squashing
system.cpu0.decode.BranchResolved             4880200                       # Number of times decode resolved a branch
system.cpu0.decode.BranchMispred                32069                       # Number of times decode detected a branch misprediction
system.cpu0.decode.DecodedInsts             113215858                       # Number of instructions handled by decode
system.cpu0.decode.SquashedInsts                55863                       # Number of squashed instructions handled by decode
system.cpu0.rename.SquashCycles                407640                       # Number of cycles rename is squashing
system.cpu0.rename.IdleCycles                29447007                       # Number of cycles rename is idle
system.cpu0.rename.BlockCycles                1200120                       # Number of cycles rename is blocking
system.cpu0.rename.serializeStallCycles        392294                       # count of cycles rename stalled for serializing inst
system.cpu0.rename.RunCycles                 55975209                       # Number of cycles rename is running
system.cpu0.rename.UnblockCycles              9237051                       # Number of cycles rename is unblocking
system.cpu0.rename.RenamedInsts             112651004                       # Number of instructions processed by rename
system.cpu0.rename.IQFullEvents               7004547                       # Number of times rename has blocked due to IQ full
system.cpu0.rename.LQFullEvents                 53054                       # Number of times rename has blocked due to LQ full
system.cpu0.rename.SQFullEvents                  3136                       # Number of times rename has blocked due to SQ full
system.cpu0.rename.RenamedOperands          141345080                       # Number of destination operands rename has renamed
system.cpu0.rename.RenameLookups            520186252                       # Number of register rename lookups that rename has made
system.cpu0.rename.int_rename_lookups       143681903                       # Number of integer rename lookups
system.cpu0.rename.fp_rename_lookups               16                       # Number of floating rename lookups
system.cpu0.rename.CommittedMaps            123981697                       # Number of HB maps that are committed
system.cpu0.rename.UndoneMaps                17363383                       # Number of HB maps that are undone due to squashing
system.cpu0.rename.serializingInsts             20971                       # count of serializing insts renamed
system.cpu0.rename.tempSerializingInsts          9668                       # count of temporary serializing insts renamed
system.cpu0.rename.skidInsts                  9918229                       # count of insts added to the skid buffer
system.cpu0.memDep0.insertedLoads            14563342                       # Number of loads inserted to the mem dependence unit.
system.cpu0.memDep0.insertedStores            9190581                       # Number of stores inserted to the mem dependence unit.
system.cpu0.memDep0.conflictingLoads          4314463                       # Number of conflicting loads.
system.cpu0.memDep0.conflictingStores         1050896                       # Number of conflicting stores.
system.cpu0.iq.iqInstsAdded                 111532229                       # Number of instructions added to the IQ (excludes non-spec)
system.cpu0.iq.iqNonSpecInstsAdded              18616                       # Number of non-speculative instructions added to the IQ
system.cpu0.iq.iqInstsIssued                102210227                       # Number of instructions issued
system.cpu0.iq.iqSquashedInstsIssued          1328278                       # Number of squashed instructions issued
system.cpu0.iq.iqSquashedInstsExamined       11039195                       # Number of squashed instructions iterated over during squash; mainly for profiling
system.cpu0.iq.iqSquashedOperandsExamined     43985778                       # Number of squashed operands that are examined and possibly removed from graph
system.cpu0.iq.iqSquashedNonSpecRemoved           867                       # Number of squashed non-spec instructions that were removed
system.cpu0.iq.issued_per_cycle::samples     96659321                       # Number of insts issued each cycle
system.cpu0.iq.issued_per_cycle::mean        1.057428                       # Number of insts issued each cycle
system.cpu0.iq.issued_per_cycle::stdev       0.613650                       # Number of insts issued each cycle
system.cpu0.iq.issued_per_cycle::underflows            0      0.00%      0.00% # Number of insts issued each cycle
system.cpu0.iq.issued_per_cycle::0           15583273     16.12%     16.12% # Number of insts issued each cycle
system.cpu0.iq.issued_per_cycle::1           59941869     62.01%     78.14% # Number of insts issued each cycle
system.cpu0.iq.issued_per_cycle::2           21134179     21.86%    100.00% # Number of insts issued each cycle
system.cpu0.iq.issued_per_cycle::overflows            0      0.00%    100.00% # Number of insts issued each cycle
system.cpu0.iq.issued_per_cycle::min_value            0                       # Number of insts issued each cycle
system.cpu0.iq.issued_per_cycle::max_value            2                       # Number of insts issued each cycle
system.cpu0.iq.issued_per_cycle::total       96659321                       # Number of insts issued each cycle
system.cpu0.iq.fu_full::No_OpClass                  0      0.00%      0.00% # attempts to use FU when none available
system.cpu0.iq.fu_full::IntAlu               59336108     93.64%     93.64% # attempts to use FU when none available
system.cpu0.iq.fu_full::IntMult                     0      0.00%     93.64% # attempts to use FU when none available
system.cpu0.iq.fu_full::IntDiv                      0      0.00%     93.64% # attempts to use FU when none available
system.cpu0.iq.fu_full::FloatAdd                    0      0.00%     93.64% # attempts to use FU when none available
system.cpu0.iq.fu_full::FloatCmp                    0      0.00%     93.64% # attempts to use FU when none available
system.cpu0.iq.fu_full::FloatCvt                    0      0.00%     93.64% # attempts to use FU when none available
system.cpu0.iq.fu_full::FloatMult                   0      0.00%     93.64% # attempts to use FU when none available
system.cpu0.iq.fu_full::FloatMultAcc                0      0.00%     93.64% # attempts to use FU when none available
system.cpu0.iq.fu_full::FloatDiv                    0      0.00%     93.64% # attempts to use FU when none available
system.cpu0.iq.fu_full::FloatMisc                   0      0.00%     93.64% # attempts to use FU when none available
system.cpu0.iq.fu_full::FloatSqrt                   0      0.00%     93.64% # attempts to use FU when none available
system.cpu0.iq.fu_full::SimdAdd                     0      0.00%     93.64% # attempts to use FU when none available
system.cpu0.iq.fu_full::SimdAddAcc                  0      0.00%     93.64% # attempts to use FU when none available
system.cpu0.iq.fu_full::SimdAlu                     0      0.00%     93.64% # attempts to use FU when none available
system.cpu0.iq.fu_full::SimdCmp                     0      0.00%     93.64% # attempts to use FU when none available
system.cpu0.iq.fu_full::SimdCvt                     0      0.00%     93.64% # attempts to use FU when none available
system.cpu0.iq.fu_full::SimdMisc                    0      0.00%     93.64% # attempts to use FU when none available
system.cpu0.iq.fu_full::SimdMult                    0      0.00%     93.64% # attempts to use FU when none available
system.cpu0.iq.fu_full::SimdMultAcc                 0      0.00%     93.64% # attempts to use FU when none available
system.cpu0.iq.fu_full::SimdShift                   0      0.00%     93.64% # attempts to use FU when none available
system.cpu0.iq.fu_full::SimdShiftAcc                0      0.00%     93.64% # attempts to use FU when none available
system.cpu0.iq.fu_full::SimdSqrt                    0      0.00%     93.64% # attempts to use FU when none available
system.cpu0.iq.fu_full::SimdFloatAdd                0      0.00%     93.64% # attempts to use FU when none available
system.cpu0.iq.fu_full::SimdFloatAlu                0      0.00%     93.64% # attempts to use FU when none available
system.cpu0.iq.fu_full::SimdFloatCmp                0      0.00%     93.64% # attempts to use FU when none available
system.cpu0.iq.fu_full::SimdFloatCvt                0      0.00%     93.64% # attempts to use FU when none available
system.cpu0.iq.fu_full::SimdFloatDiv                0      0.00%     93.64% # attempts to use FU when none available
system.cpu0.iq.fu_full::SimdFloatMisc               0      0.00%     93.64% # attempts to use FU when none available
system.cpu0.iq.fu_full::SimdFloatMult               0      0.00%     93.64% # attempts to use FU when none available
system.cpu0.iq.fu_full::SimdFloatMultAcc            0      0.00%     93.64% # attempts to use FU when none available
system.cpu0.iq.fu_full::SimdFloatSqrt               0      0.00%     93.64% # attempts to use FU when none available
system.cpu0.iq.fu_full::MemRead               2453884      3.87%     97.51% # attempts to use FU when none available
system.cpu0.iq.fu_full::MemWrite              1579460      2.49%    100.00% # attempts to use FU when none available
system.cpu0.iq.fu_full::FloatMemRead                0      0.00%    100.00% # attempts to use FU when none available
system.cpu0.iq.fu_full::FloatMemWrite               0      0.00%    100.00% # attempts to use FU when none available
system.cpu0.iq.fu_full::IprAccess                   0      0.00%    100.00% # attempts to use FU when none available
system.cpu0.iq.fu_full::InstPrefetch                0      0.00%    100.00% # attempts to use FU when none available
system.cpu0.iq.FU_type_0::No_OpClass                0      0.00%      0.00% # Type of FU issued
system.cpu0.iq.FU_type_0::IntAlu             78754370     77.05%     77.05% # Type of FU issued
system.cpu0.iq.FU_type_0::IntMult              523592      0.51%     77.56% # Type of FU issued
system.cpu0.iq.FU_type_0::IntDiv                    0      0.00%     77.56% # Type of FU issued
system.cpu0.iq.FU_type_0::FloatAdd                  0      0.00%     77.56% # Type of FU issued
system.cpu0.iq.FU_type_0::FloatCmp                  0      0.00%     77.56% # Type of FU issued
system.cpu0.iq.FU_type_0::FloatCvt                  0      0.00%     77.56% # Type of FU issued
system.cpu0.iq.FU_type_0::FloatMult                 0      0.00%     77.56% # Type of FU issued
system.cpu0.iq.FU_type_0::FloatMultAcc              0      0.00%     77.56% # Type of FU issued
system.cpu0.iq.FU_type_0::FloatDiv                  0      0.00%     77.56% # Type of FU issued
system.cpu0.iq.FU_type_0::FloatMisc                 0      0.00%     77.56% # Type of FU issued
system.cpu0.iq.FU_type_0::FloatSqrt                 0      0.00%     77.56% # Type of FU issued
system.cpu0.iq.FU_type_0::SimdAdd                   0      0.00%     77.56% # Type of FU issued
system.cpu0.iq.FU_type_0::SimdAddAcc                0      0.00%     77.56% # Type of FU issued
system.cpu0.iq.FU_type_0::SimdAlu                   0      0.00%     77.56% # Type of FU issued
system.cpu0.iq.FU_type_0::SimdCmp                   0      0.00%     77.56% # Type of FU issued
system.cpu0.iq.FU_type_0::SimdCvt                   0      0.00%     77.56% # Type of FU issued
system.cpu0.iq.FU_type_0::SimdMisc                  0      0.00%     77.56% # Type of FU issued
system.cpu0.iq.FU_type_0::SimdMult                  0      0.00%     77.56% # Type of FU issued
system.cpu0.iq.FU_type_0::SimdMultAcc               0      0.00%     77.56% # Type of FU issued
system.cpu0.iq.FU_type_0::SimdShift                 0      0.00%     77.56% # Type of FU issued
system.cpu0.iq.FU_type_0::SimdShiftAcc              0      0.00%     77.56% # Type of FU issued
system.cpu0.iq.FU_type_0::SimdSqrt                  0      0.00%     77.56% # Type of FU issued
system.cpu0.iq.FU_type_0::SimdFloatAdd              0      0.00%     77.56% # Type of FU issued
system.cpu0.iq.FU_type_0::SimdFloatAlu              0      0.00%     77.56% # Type of FU issued
system.cpu0.iq.FU_type_0::SimdFloatCmp              0      0.00%     77.56% # Type of FU issued
system.cpu0.iq.FU_type_0::SimdFloatCvt              0      0.00%     77.56% # Type of FU issued
system.cpu0.iq.FU_type_0::SimdFloatDiv              0      0.00%     77.56% # Type of FU issued
system.cpu0.iq.FU_type_0::SimdFloatMisc         11308      0.01%     77.57% # Type of FU issued
system.cpu0.iq.FU_type_0::SimdFloatMult             0      0.00%     77.57% # Type of FU issued
system.cpu0.iq.FU_type_0::SimdFloatMultAcc            0      0.00%     77.57% # Type of FU issued
system.cpu0.iq.FU_type_0::SimdFloatSqrt             0      0.00%     77.57% # Type of FU issued
system.cpu0.iq.FU_type_0::MemRead            14129640     13.82%     91.40% # Type of FU issued
system.cpu0.iq.FU_type_0::MemWrite            8791301      8.60%    100.00% # Type of FU issued
system.cpu0.iq.FU_type_0::FloatMemRead              0      0.00%    100.00% # Type of FU issued
system.cpu0.iq.FU_type_0::FloatMemWrite            16      0.00%    100.00% # Type of FU issued
system.cpu0.iq.FU_type_0::IprAccess                 0      0.00%    100.00% # Type of FU issued
system.cpu0.iq.FU_type_0::InstPrefetch              0      0.00%    100.00% # Type of FU issued
system.cpu0.iq.FU_type_0::total             102210227                       # Type of FU issued
system.cpu0.iq.rate                          1.055967                       # Inst issue rate
system.cpu0.iq.fu_busy_cnt                   63369452                       # FU busy when requested
system.cpu0.iq.fu_busy_rate                  0.619991                       # FU busy rate (busy events/executed inst)
system.cpu0.iq.int_inst_queue_reads         365777473                       # Number of integer instruction queue reads
system.cpu0.iq.int_inst_queue_writes        122591524                       # Number of integer instruction queue writes
system.cpu0.iq.int_inst_queue_wakeup_accesses    101869854                       # Number of integer instruction queue wakeup accesses
system.cpu0.iq.fp_inst_queue_reads                 32                       # Number of floating instruction queue reads
system.cpu0.iq.fp_inst_queue_writes                16                       # Number of floating instruction queue writes
system.cpu0.iq.fp_inst_queue_wakeup_accesses           16                       # Number of floating instruction queue wakeup accesses
system.cpu0.iq.int_alu_accesses             165579663                       # Number of integer alu accesses
system.cpu0.iq.fp_alu_accesses                     16                       # Number of floating point alu accesses
system.cpu0.iew.lsq.thread0.forwLoads         1853724                       # Number of loads that had data forwarded from stores
system.cpu0.iew.lsq.thread0.invAddrLoads            0                       # Number of loads ignored due to an invalid address
system.cpu0.iew.lsq.thread0.squashedLoads       981755                       # Number of loads squashed
system.cpu0.iew.lsq.thread0.ignoredResponses          250                       # Number of memory responses ignored because the instruction is squashed
system.cpu0.iew.lsq.thread0.memOrderViolation         1577                       # Number of memory ordering violations
system.cpu0.iew.lsq.thread0.squashedStores       533151                       # Number of stores squashed
system.cpu0.iew.lsq.thread0.invAddrSwpfs            0                       # Number of software prefetches ignored due to an invalid address
system.cpu0.iew.lsq.thread0.blockedLoads            0                       # Number of blocked loads due to partial load-store forwarding
system.cpu0.iew.lsq.thread0.rescheduledLoads       116758                       # Number of loads that were rescheduled
system.cpu0.iew.lsq.thread0.cacheBlocked         1234                       # Number of times an access to memory failed due to the cache being blocked
system.cpu0.iew.iewIdleCycles                       0                       # Number of cycles IEW is idle
system.cpu0.iew.iewSquashCycles                407640                       # Number of cycles IEW is squashing
system.cpu0.iew.iewBlockCycles                1166074                       # Number of cycles IEW is blocking
system.cpu0.iew.iewUnblockCycles                28368                       # Number of cycles IEW is unblocking
system.cpu0.iew.iewDispatchedInsts          111550878                       # Number of instructions dispatched to IQ
system.cpu0.iew.iewDispSquashedInsts            91861                       # Number of squashed instructions skipped by dispatch
system.cpu0.iew.iewDispLoadInsts             14563342                       # Number of dispatched load instructions
system.cpu0.iew.iewDispStoreInsts             9190581                       # Number of dispatched store instructions
system.cpu0.iew.iewDispNonSpecInsts              9483                       # Number of dispatched non-speculative instructions
system.cpu0.iew.iewIQFullEvents                   477                       # Number of times the IQ has become full, causing a stall
system.cpu0.iew.iewLSQFullEvents                 5916                       # Number of times the LSQ has become full, causing a stall
system.cpu0.iew.memOrderViolationEvents          1577                       # Number of memory order violations
system.cpu0.iew.predictedTakenIncorrect        217143                       # Number of branches that were predicted taken incorrectly
system.cpu0.iew.predictedNotTakenIncorrect       209226                       # Number of branches that were predicted not taken incorrectly
system.cpu0.iew.branchMispredicts              426369                       # Number of branch mispredicts detected at execute
system.cpu0.iew.iewExecutedInsts            102064778                       # Number of executed instructions
system.cpu0.iew.iewExecLoadInsts             14086278                       # Number of load instructions executed
system.cpu0.iew.iewExecSquashedInsts           145449                       # Number of squashed instructions skipped in execute
system.cpu0.iew.exec_swp                            0                       # number of swp insts executed
system.cpu0.iew.exec_nop                           33                       # number of nop insts executed
system.cpu0.iew.exec_refs                    22855839                       # number of memory reference insts executed
system.cpu0.iew.exec_branches                15927534                       # Number of branches executed
system.cpu0.iew.exec_stores                   8769561                       # Number of stores executed
system.cpu0.iew.exec_rate                    1.054464                       # Inst execution rate
system.cpu0.iew.wb_sent                     101890355                       # cumulative count of insts sent to commit
system.cpu0.iew.wb_count                    101869870                       # cumulative count of insts written-back
system.cpu0.iew.wb_producers                 72248970                       # num instructions producing a value
system.cpu0.iew.wb_consumers                165612692                       # num instructions consuming a value
system.cpu0.iew.wb_rate                      1.052451                       # insts written-back per cycle
system.cpu0.iew.wb_fanout                    0.436253                       # average fanout of values written-back
system.cpu0.commit.commitSquashedInsts       11039227                       # The number of squashed insts skipped by commit
system.cpu0.commit.commitNonSpecStalls          17749                       # The number of times commit has been forced to stall to communicate backwards
system.cpu0.commit.branchMispredicts           403821                       # The number of times a branch was mispredicted
system.cpu0.commit.committed_per_cycle::samples     95100439                       # Number of insts commited each cycle
system.cpu0.commit.committed_per_cycle::mean     1.056900                       # Number of insts commited each cycle
system.cpu0.commit.committed_per_cycle::stdev     1.021608                       # Number of insts commited each cycle
system.cpu0.commit.committed_per_cycle::underflows            0      0.00%      0.00% # Number of insts commited each cycle
system.cpu0.commit.committed_per_cycle::0     19956808     20.98%     20.98% # Number of insts commited each cycle
system.cpu0.commit.committed_per_cycle::1     61910946     65.10%     86.09% # Number of insts commited each cycle
system.cpu0.commit.committed_per_cycle::2      8061023      8.48%     94.56% # Number of insts commited each cycle
system.cpu0.commit.committed_per_cycle::3      2469310      2.60%     97.16% # Number of insts commited each cycle
system.cpu0.commit.committed_per_cycle::4       998586      1.05%     98.21% # Number of insts commited each cycle
system.cpu0.commit.committed_per_cycle::5       235428      0.25%     98.46% # Number of insts commited each cycle
system.cpu0.commit.committed_per_cycle::6       490928      0.52%     98.97% # Number of insts commited each cycle
system.cpu0.commit.committed_per_cycle::7       865604      0.91%     99.88% # Number of insts commited each cycle
system.cpu0.commit.committed_per_cycle::8       111806      0.12%    100.00% # Number of insts commited each cycle
system.cpu0.commit.committed_per_cycle::overflows            0      0.00%    100.00% # Number of insts commited each cycle
system.cpu0.commit.committed_per_cycle::min_value            0                       # Number of insts commited each cycle
system.cpu0.commit.committed_per_cycle::max_value            8                       # Number of insts commited each cycle
system.cpu0.commit.committed_per_cycle::total     95100439                       # Number of insts commited each cycle
system.cpu0.commit.committedInsts            88942599                       # Number of instructions committed
system.cpu0.commit.committedOps             100511650                       # Number of ops (including micro ops) committed
system.cpu0.commit.swp_count                        0                       # Number of s/w prefetches committed
system.cpu0.commit.refs                      22239017                       # Number of memory references committed
system.cpu0.commit.loads                     13581587                       # Number of loads committed
system.cpu0.commit.membars                       9002                       # Number of memory barriers committed
system.cpu0.commit.branches                  15788814                       # Number of branches committed
system.cpu0.commit.fp_insts                        16                       # Number of committed floating point instructions.
system.cpu0.commit.int_insts                 90873936                       # Number of committed integer instructions.
system.cpu0.commit.function_calls             2565185                       # Number of function calls committed.
system.cpu0.commit.op_class_0::No_OpClass            0      0.00%      0.00% # Class of committed instruction
system.cpu0.commit.op_class_0::IntAlu        77756177     77.36%     77.36% # Class of committed instruction
system.cpu0.commit.op_class_0::IntMult         505148      0.50%     77.86% # Class of committed instruction
system.cpu0.commit.op_class_0::IntDiv               0      0.00%     77.86% # Class of committed instruction
system.cpu0.commit.op_class_0::FloatAdd             0      0.00%     77.86% # Class of committed instruction
system.cpu0.commit.op_class_0::FloatCmp             0      0.00%     77.86% # Class of committed instruction
system.cpu0.commit.op_class_0::FloatCvt             0      0.00%     77.86% # Class of committed instruction
system.cpu0.commit.op_class_0::FloatMult            0      0.00%     77.86% # Class of committed instruction
system.cpu0.commit.op_class_0::FloatMultAcc            0      0.00%     77.86% # Class of committed instruction
system.cpu0.commit.op_class_0::FloatDiv             0      0.00%     77.86% # Class of committed instruction
system.cpu0.commit.op_class_0::FloatMisc            0      0.00%     77.86% # Class of committed instruction
system.cpu0.commit.op_class_0::FloatSqrt            0      0.00%     77.86% # Class of committed instruction
system.cpu0.commit.op_class_0::SimdAdd              0      0.00%     77.86% # Class of committed instruction
system.cpu0.commit.op_class_0::SimdAddAcc            0      0.00%     77.86% # Class of committed instruction
system.cpu0.commit.op_class_0::SimdAlu              0      0.00%     77.86% # Class of committed instruction
system.cpu0.commit.op_class_0::SimdCmp              0      0.00%     77.86% # Class of committed instruction
system.cpu0.commit.op_class_0::SimdCvt              0      0.00%     77.86% # Class of committed instruction
system.cpu0.commit.op_class_0::SimdMisc             0      0.00%     77.86% # Class of committed instruction
system.cpu0.commit.op_class_0::SimdMult             0      0.00%     77.86% # Class of committed instruction
system.cpu0.commit.op_class_0::SimdMultAcc            0      0.00%     77.86% # Class of committed instruction
system.cpu0.commit.op_class_0::SimdShift            0      0.00%     77.86% # Class of committed instruction
system.cpu0.commit.op_class_0::SimdShiftAcc            0      0.00%     77.86% # Class of committed instruction
system.cpu0.commit.op_class_0::SimdSqrt             0      0.00%     77.86% # Class of committed instruction
system.cpu0.commit.op_class_0::SimdFloatAdd            0      0.00%     77.86% # Class of committed instruction
system.cpu0.commit.op_class_0::SimdFloatAlu            0      0.00%     77.86% # Class of committed instruction
system.cpu0.commit.op_class_0::SimdFloatCmp            0      0.00%     77.86% # Class of committed instruction
system.cpu0.commit.op_class_0::SimdFloatCvt            0      0.00%     77.86% # Class of committed instruction
system.cpu0.commit.op_class_0::SimdFloatDiv            0      0.00%     77.86% # Class of committed instruction
system.cpu0.commit.op_class_0::SimdFloatMisc        11308      0.01%     77.87% # Class of committed instruction
system.cpu0.commit.op_class_0::SimdFloatMult            0      0.00%     77.87% # Class of committed instruction
system.cpu0.commit.op_class_0::SimdFloatMultAcc            0      0.00%     77.87% # Class of committed instruction
system.cpu0.commit.op_class_0::SimdFloatSqrt            0      0.00%     77.87% # Class of committed instruction
system.cpu0.commit.op_class_0::MemRead       13581587     13.51%     91.39% # Class of committed instruction
system.cpu0.commit.op_class_0::MemWrite       8657414      8.61%    100.00% # Class of committed instruction
system.cpu0.commit.op_class_0::FloatMemRead            0      0.00%    100.00% # Class of committed instruction
system.cpu0.commit.op_class_0::FloatMemWrite           16      0.00%    100.00% # Class of committed instruction
system.cpu0.commit.op_class_0::IprAccess            0      0.00%    100.00% # Class of committed instruction
system.cpu0.commit.op_class_0::InstPrefetch            0      0.00%    100.00% # Class of committed instruction
system.cpu0.commit.op_class_0::total        100511650                       # Class of committed instruction
system.cpu0.commit.bw_lim_events               111806                       # number cycles where commit BW limit reached
system.cpu0.rob.rob_reads                   206507719                       # The number of ROB reads
system.cpu0.rob.rob_writes                  224660668                       # The number of ROB writes
system.cpu0.timesIdled                          13275                       # Number of times that the entire CPU went into an idle state and unscheduled itself
system.cpu0.idleCycles                         133688                       # Total number of cycles that the CPU has spent unscheduled due to idling
system.cpu0.committedInsts                   88942599                       # Number of Instructions Simulated
system.cpu0.committedOps                    100511650                       # Number of Ops (including micro ops) Simulated
system.cpu0.cpi                              1.088264                       # CPI: Cycles Per Instruction
system.cpu0.cpi_total                        1.088264                       # CPI: Total CPI of All Threads
system.cpu0.ipc                              0.918895                       # IPC: Instructions Per Cycle
system.cpu0.ipc_total                        0.918895                       # IPC: Total IPC of All Threads
system.cpu0.int_regfile_reads               119929119                       # number of integer regfile reads
system.cpu0.int_regfile_writes               70817720                       # number of integer regfile writes
system.cpu0.fp_regfile_reads                     1136                       # number of floating regfile reads
system.cpu0.cc_regfile_reads                351112728                       # number of cc regfile reads
system.cpu0.cc_regfile_writes                53150542                       # number of cc regfile writes
system.cpu0.misc_regfile_reads               22728438                       # number of misc regfile reads
system.cpu0.misc_regfile_writes                 15425                       # number of misc regfile writes
system.cpu0.dcache.tags.pwrStateResidencyTicks::UNDEFINED  96793008000                       # Cumulative time (in ticks) in various power states
system.cpu0.dcache.tags.replacements            60817                       # number of replacements
system.cpu0.dcache.tags.tagsinuse          119.683821                       # Cycle average of tags in use
system.cpu0.dcache.tags.total_refs           20085819                       # Total number of references to valid blocks.
system.cpu0.dcache.tags.sampled_refs            60945                       # Sample count of references to valid blocks.
system.cpu0.dcache.tags.avg_refs           329.572877                       # Average number of references to valid blocks.
system.cpu0.dcache.tags.warmup_cycle        872218500                       # Cycle when the warmup percentage was hit.
system.cpu0.dcache.tags.occ_blocks::cpu0.data   119.683821                       # Average occupied blocks per requestor
system.cpu0.dcache.tags.occ_percent::cpu0.data     0.935030                       # Average percentage of cache occupancy
system.cpu0.dcache.tags.occ_percent::total     0.935030                       # Average percentage of cache occupancy
system.cpu0.dcache.tags.occ_task_id_blocks::1024          128                       # Occupied blocks per task id
system.cpu0.dcache.tags.age_task_id_blocks_1024::0           32                       # Occupied blocks per task id
system.cpu0.dcache.tags.age_task_id_blocks_1024::1           15                       # Occupied blocks per task id
system.cpu0.dcache.tags.age_task_id_blocks_1024::2           79                       # Occupied blocks per task id
system.cpu0.dcache.tags.age_task_id_blocks_1024::3            2                       # Occupied blocks per task id
system.cpu0.dcache.tags.occ_task_id_percent::1024            1                       # Percentage of cache occupancy per task id
system.cpu0.dcache.tags.tag_accesses         40412427                       # Number of tag accesses
system.cpu0.dcache.tags.data_accesses        40412427                       # Number of data accesses
system.cpu0.dcache.pwrStateResidencyTicks::UNDEFINED  96793008000                       # Cumulative time (in ticks) in various power states
system.cpu0.dcache.ReadReq_hits::cpu0.data     11602749                       # number of ReadReq hits
system.cpu0.dcache.ReadReq_hits::total       11602749                       # number of ReadReq hits
system.cpu0.dcache.WriteReq_hits::cpu0.data      8468879                       # number of WriteReq hits
system.cpu0.dcache.WriteReq_hits::total       8468879                       # number of WriteReq hits
system.cpu0.dcache.LoadLockedReq_hits::cpu0.data         6056                       # number of LoadLockedReq hits
system.cpu0.dcache.LoadLockedReq_hits::total         6056                       # number of LoadLockedReq hits
system.cpu0.dcache.StoreCondReq_hits::cpu0.data         4151                       # number of StoreCondReq hits
system.cpu0.dcache.StoreCondReq_hits::total         4151                       # number of StoreCondReq hits
system.cpu0.dcache.demand_hits::cpu0.data     20071628                       # number of demand (read+write) hits
system.cpu0.dcache.demand_hits::total        20071628                       # number of demand (read+write) hits
system.cpu0.dcache.overall_hits::cpu0.data     20071628                       # number of overall hits
system.cpu0.dcache.overall_hits::total       20071628                       # number of overall hits
system.cpu0.dcache.ReadReq_misses::cpu0.data        55540                       # number of ReadReq misses
system.cpu0.dcache.ReadReq_misses::total        55540                       # number of ReadReq misses
system.cpu0.dcache.WriteReq_misses::cpu0.data        33253                       # number of WriteReq misses
system.cpu0.dcache.WriteReq_misses::total        33253                       # number of WriteReq misses
system.cpu0.dcache.LoadLockedReq_misses::cpu0.data          505                       # number of LoadLockedReq misses
system.cpu0.dcache.LoadLockedReq_misses::total          505                       # number of LoadLockedReq misses
system.cpu0.dcache.StoreCondReq_misses::cpu0.data         1835                       # number of StoreCondReq misses
system.cpu0.dcache.StoreCondReq_misses::total         1835                       # number of StoreCondReq misses
system.cpu0.dcache.demand_misses::cpu0.data        88793                       # number of demand (read+write) misses
system.cpu0.dcache.demand_misses::total         88793                       # number of demand (read+write) misses
system.cpu0.dcache.overall_misses::cpu0.data        88793                       # number of overall misses
system.cpu0.dcache.overall_misses::total        88793                       # number of overall misses
system.cpu0.dcache.ReadReq_miss_latency::cpu0.data    989722000                       # number of ReadReq miss cycles
system.cpu0.dcache.ReadReq_miss_latency::total    989722000                       # number of ReadReq miss cycles
system.cpu0.dcache.WriteReq_miss_latency::cpu0.data    667030263                       # number of WriteReq miss cycles
system.cpu0.dcache.WriteReq_miss_latency::total    667030263                       # number of WriteReq miss cycles
system.cpu0.dcache.LoadLockedReq_miss_latency::cpu0.data      4986000                       # number of LoadLockedReq miss cycles
system.cpu0.dcache.LoadLockedReq_miss_latency::total      4986000                       # number of LoadLockedReq miss cycles
system.cpu0.dcache.StoreCondReq_miss_latency::cpu0.data     17037000                       # number of StoreCondReq miss cycles
system.cpu0.dcache.StoreCondReq_miss_latency::total     17037000                       # number of StoreCondReq miss cycles
system.cpu0.dcache.StoreCondFailReq_miss_latency::cpu0.data       571000                       # number of StoreCondFailReq miss cycles
system.cpu0.dcache.StoreCondFailReq_miss_latency::total       571000                       # number of StoreCondFailReq miss cycles
system.cpu0.dcache.demand_miss_latency::cpu0.data   1656752263                       # number of demand (read+write) miss cycles
system.cpu0.dcache.demand_miss_latency::total   1656752263                       # number of demand (read+write) miss cycles
system.cpu0.dcache.overall_miss_latency::cpu0.data   1656752263                       # number of overall miss cycles
system.cpu0.dcache.overall_miss_latency::total   1656752263                       # number of overall miss cycles
system.cpu0.dcache.ReadReq_accesses::cpu0.data     11658289                       # number of ReadReq accesses(hits+misses)
system.cpu0.dcache.ReadReq_accesses::total     11658289                       # number of ReadReq accesses(hits+misses)
system.cpu0.dcache.WriteReq_accesses::cpu0.data      8502132                       # number of WriteReq accesses(hits+misses)
system.cpu0.dcache.WriteReq_accesses::total      8502132                       # number of WriteReq accesses(hits+misses)
system.cpu0.dcache.LoadLockedReq_accesses::cpu0.data         6561                       # number of LoadLockedReq accesses(hits+misses)
system.cpu0.dcache.LoadLockedReq_accesses::total         6561                       # number of LoadLockedReq accesses(hits+misses)
system.cpu0.dcache.StoreCondReq_accesses::cpu0.data         5986                       # number of StoreCondReq accesses(hits+misses)
system.cpu0.dcache.StoreCondReq_accesses::total         5986                       # number of StoreCondReq accesses(hits+misses)
system.cpu0.dcache.demand_accesses::cpu0.data     20160421                       # number of demand (read+write) accesses
system.cpu0.dcache.demand_accesses::total     20160421                       # number of demand (read+write) accesses
system.cpu0.dcache.overall_accesses::cpu0.data     20160421                       # number of overall (read+write) accesses
system.cpu0.dcache.overall_accesses::total     20160421                       # number of overall (read+write) accesses
system.cpu0.dcache.ReadReq_miss_rate::cpu0.data     0.004764                       # miss rate for ReadReq accesses
system.cpu0.dcache.ReadReq_miss_rate::total     0.004764                       # miss rate for ReadReq accesses
system.cpu0.dcache.WriteReq_miss_rate::cpu0.data     0.003911                       # miss rate for WriteReq accesses
system.cpu0.dcache.WriteReq_miss_rate::total     0.003911                       # miss rate for WriteReq accesses
system.cpu0.dcache.LoadLockedReq_miss_rate::cpu0.data     0.076970                       # miss rate for LoadLockedReq accesses
system.cpu0.dcache.LoadLockedReq_miss_rate::total     0.076970                       # miss rate for LoadLockedReq accesses
system.cpu0.dcache.StoreCondReq_miss_rate::cpu0.data     0.306549                       # miss rate for StoreCondReq accesses
system.cpu0.dcache.StoreCondReq_miss_rate::total     0.306549                       # miss rate for StoreCondReq accesses
system.cpu0.dcache.demand_miss_rate::cpu0.data     0.004404                       # miss rate for demand accesses
system.cpu0.dcache.demand_miss_rate::total     0.004404                       # miss rate for demand accesses
system.cpu0.dcache.overall_miss_rate::cpu0.data     0.004404                       # miss rate for overall accesses
system.cpu0.dcache.overall_miss_rate::total     0.004404                       # miss rate for overall accesses
system.cpu0.dcache.ReadReq_avg_miss_latency::cpu0.data 17819.985596                       # average ReadReq miss latency
system.cpu0.dcache.ReadReq_avg_miss_latency::total 17819.985596                       # average ReadReq miss latency
system.cpu0.dcache.WriteReq_avg_miss_latency::cpu0.data 20059.250684                       # average WriteReq miss latency
system.cpu0.dcache.WriteReq_avg_miss_latency::total 20059.250684                       # average WriteReq miss latency
system.cpu0.dcache.LoadLockedReq_avg_miss_latency::cpu0.data  9873.267327                       # average LoadLockedReq miss latency
system.cpu0.dcache.LoadLockedReq_avg_miss_latency::total  9873.267327                       # average LoadLockedReq miss latency
system.cpu0.dcache.StoreCondReq_avg_miss_latency::cpu0.data  9284.468665                       # average StoreCondReq miss latency
system.cpu0.dcache.StoreCondReq_avg_miss_latency::total  9284.468665                       # average StoreCondReq miss latency
system.cpu0.dcache.StoreCondFailReq_avg_miss_latency::cpu0.data          inf                       # average StoreCondFailReq miss latency
system.cpu0.dcache.StoreCondFailReq_avg_miss_latency::total          inf                       # average StoreCondFailReq miss latency
system.cpu0.dcache.demand_avg_miss_latency::cpu0.data 18658.590914                       # average overall miss latency
system.cpu0.dcache.demand_avg_miss_latency::total 18658.590914                       # average overall miss latency
system.cpu0.dcache.overall_avg_miss_latency::cpu0.data 18658.590914                       # average overall miss latency
system.cpu0.dcache.overall_avg_miss_latency::total 18658.590914                       # average overall miss latency
system.cpu0.dcache.blocked_cycles::no_mshrs         5008                       # number of cycles access was blocked
system.cpu0.dcache.blocked_cycles::no_targets            0                       # number of cycles access was blocked
system.cpu0.dcache.blocked::no_mshrs              760                       # number of cycles access was blocked
system.cpu0.dcache.blocked::no_targets              0                       # number of cycles access was blocked
system.cpu0.dcache.avg_blocked_cycles::no_mshrs     6.589474                       # average number of cycles each access was blocked
system.cpu0.dcache.avg_blocked_cycles::no_targets          nan                       # average number of cycles each access was blocked
system.cpu0.dcache.writebacks::writebacks        26419                       # number of writebacks
system.cpu0.dcache.writebacks::total            26419                       # number of writebacks
system.cpu0.dcache.ReadReq_mshr_hits::cpu0.data         7873                       # number of ReadReq MSHR hits
system.cpu0.dcache.ReadReq_mshr_hits::total         7873                       # number of ReadReq MSHR hits
system.cpu0.dcache.WriteReq_mshr_hits::cpu0.data        13364                       # number of WriteReq MSHR hits
system.cpu0.dcache.WriteReq_mshr_hits::total        13364                       # number of WriteReq MSHR hits
system.cpu0.dcache.LoadLockedReq_mshr_hits::cpu0.data          126                       # number of LoadLockedReq MSHR hits
system.cpu0.dcache.LoadLockedReq_mshr_hits::total          126                       # number of LoadLockedReq MSHR hits
system.cpu0.dcache.demand_mshr_hits::cpu0.data        21237                       # number of demand (read+write) MSHR hits
system.cpu0.dcache.demand_mshr_hits::total        21237                       # number of demand (read+write) MSHR hits
system.cpu0.dcache.overall_mshr_hits::cpu0.data        21237                       # number of overall MSHR hits
system.cpu0.dcache.overall_mshr_hits::total        21237                       # number of overall MSHR hits
system.cpu0.dcache.ReadReq_mshr_misses::cpu0.data        47667                       # number of ReadReq MSHR misses
system.cpu0.dcache.ReadReq_mshr_misses::total        47667                       # number of ReadReq MSHR misses
system.cpu0.dcache.WriteReq_mshr_misses::cpu0.data        19889                       # number of WriteReq MSHR misses
system.cpu0.dcache.WriteReq_mshr_misses::total        19889                       # number of WriteReq MSHR misses
system.cpu0.dcache.LoadLockedReq_mshr_misses::cpu0.data          379                       # number of LoadLockedReq MSHR misses
system.cpu0.dcache.LoadLockedReq_mshr_misses::total          379                       # number of LoadLockedReq MSHR misses
system.cpu0.dcache.StoreCondReq_mshr_misses::cpu0.data         1835                       # number of StoreCondReq MSHR misses
system.cpu0.dcache.StoreCondReq_mshr_misses::total         1835                       # number of StoreCondReq MSHR misses
system.cpu0.dcache.demand_mshr_misses::cpu0.data        67556                       # number of demand (read+write) MSHR misses
system.cpu0.dcache.demand_mshr_misses::total        67556                       # number of demand (read+write) MSHR misses
system.cpu0.dcache.overall_mshr_misses::cpu0.data        67556                       # number of overall MSHR misses
system.cpu0.dcache.overall_mshr_misses::total        67556                       # number of overall MSHR misses
system.cpu0.dcache.ReadReq_mshr_miss_latency::cpu0.data    703191500                       # number of ReadReq MSHR miss cycles
system.cpu0.dcache.ReadReq_mshr_miss_latency::total    703191500                       # number of ReadReq MSHR miss cycles
system.cpu0.dcache.WriteReq_mshr_miss_latency::cpu0.data    328879344                       # number of WriteReq MSHR miss cycles
system.cpu0.dcache.WriteReq_mshr_miss_latency::total    328879344                       # number of WriteReq MSHR miss cycles
system.cpu0.dcache.LoadLockedReq_mshr_miss_latency::cpu0.data      2385000                       # number of LoadLockedReq MSHR miss cycles
system.cpu0.dcache.LoadLockedReq_mshr_miss_latency::total      2385000                       # number of LoadLockedReq MSHR miss cycles
system.cpu0.dcache.StoreCondReq_mshr_miss_latency::cpu0.data     13444000                       # number of StoreCondReq MSHR miss cycles
system.cpu0.dcache.StoreCondReq_mshr_miss_latency::total     13444000                       # number of StoreCondReq MSHR miss cycles
system.cpu0.dcache.StoreCondFailReq_mshr_miss_latency::cpu0.data       473000                       # number of StoreCondFailReq MSHR miss cycles
system.cpu0.dcache.StoreCondFailReq_mshr_miss_latency::total       473000                       # number of StoreCondFailReq MSHR miss cycles
system.cpu0.dcache.demand_mshr_miss_latency::cpu0.data   1032070844                       # number of demand (read+write) MSHR miss cycles
system.cpu0.dcache.demand_mshr_miss_latency::total   1032070844                       # number of demand (read+write) MSHR miss cycles
system.cpu0.dcache.overall_mshr_miss_latency::cpu0.data   1032070844                       # number of overall MSHR miss cycles
system.cpu0.dcache.overall_mshr_miss_latency::total   1032070844                       # number of overall MSHR miss cycles
system.cpu0.dcache.ReadReq_mshr_miss_rate::cpu0.data     0.004089                       # mshr miss rate for ReadReq accesses
[...]
system.l2.overall_avg_mshr_miss_latency::cpu3.data 51580.361993                       # average overall mshr miss latency
system.l2.overall_avg_mshr_miss_latency::cpu4.inst 52079.054975                       # average overall mshr miss latency
system.l2.overall_avg_mshr_miss_latency::cpu4.data 51706.026141                       # average overall mshr miss latency
system.l2.overall_avg_mshr_miss_latency::cpu5.inst 52041.773816                       # average overall mshr miss latency
system.l2.overall_avg_mshr_miss_latency::cpu5.data 51706.965174                       # average overall mshr miss latency
system.l2.overall_avg_mshr_miss_latency::cpu6.inst 51834.131642                       # average overall mshr miss latency
system.l2.overall_avg_mshr_miss_latency::cpu6.data 51627.739542                       # average overall mshr miss latency
system.l2.overall_avg_mshr_miss_latency::cpu7.inst 51579.741818                       # average overall mshr miss latency
system.l2.overall_avg_mshr_miss_latency::cpu7.data 51559.125085                       # average overall mshr miss latency
system.l2.overall_avg_mshr_miss_latency::total 51755.647012                       # average overall mshr miss latency
system.membus.snoop_filter.tot_requests         78497                       # Total number of requests made to the snoop filter.
system.membus.snoop_filter.hit_single_requests        50816                       # Number of requests hitting in the snoop filter with a single holder of the requested data.
system.membus.snoop_filter.hit_multi_requests            0                       # Number of requests hitting in the snoop filter with multiple (>1) holders of the requested data.
system.membus.snoop_filter.tot_snoops               0                       # Total number of snoops made to the snoop filter.
system.membus.snoop_filter.hit_single_snoops            0                       # Number of snoops hitting in the snoop filter with a single holder of the requested data.
system.membus.snoop_filter.hit_multi_snoops            0                       # Number of snoops hitting in the snoop filter with multiple (>1) holders of the requested data.
system.membus.pwrStateResidencyTicks::UNDEFINED  96793008000                       # Cumulative time (in ticks) in various power states
system.membus.trans_dist::ReadResp              25817                       # Transaction distribution
system.membus.trans_dist::WritebackDirty         9471                       # Transaction distribution
system.membus.trans_dist::CleanEvict            14808                       # Transaction distribution
system.membus.trans_dist::UpgradeReq             6387                       # Transaction distribution
system.membus.trans_dist::SCUpgradeReq          10623                       # Transaction distribution
system.membus.trans_dist::SCUpgradeFailReq            1                       # Transaction distribution
system.membus.trans_dist::ReadExReq              8516                       # Transaction distribution
system.membus.trans_dist::ReadExResp             8396                       # Transaction distribution
system.membus.trans_dist::ReadSharedReq         25817                       # Transaction distribution
system.membus.pkt_count_system.l2.mem_side::system.physmem.port       109836                       # Packet count per connected master and slave (bytes)
system.membus.pkt_count::total                 109836                       # Packet count per connected master and slave (bytes)
system.membus.pkt_size_system.l2.mem_side::system.physmem.port      2795776                       # Cumulative packet size per connected master and slave (bytes)
system.membus.pkt_size::total                 2795776                       # Cumulative packet size per connected master and slave (bytes)
system.membus.snoops                            16048                       # Total snoops (count)
system.membus.snoopTraffic                          0                       # Total snoop traffic (bytes)
system.membus.snoop_fanout::samples             53811                       # Request fanout histogram
system.membus.snoop_fanout::mean                    0                       # Request fanout histogram
system.membus.snoop_fanout::stdev                   0                       # Request fanout histogram
system.membus.snoop_fanout::underflows              0      0.00%      0.00% # Request fanout histogram
system.membus.snoop_fanout::0                   53811    100.00%    100.00% # Request fanout histogram
system.membus.snoop_fanout::1                       0      0.00%    100.00% # Request fanout histogram
system.membus.snoop_fanout::overflows               0      0.00%    100.00% # Request fanout histogram
system.membus.snoop_fanout::min_value               0                       # Request fanout histogram
system.membus.snoop_fanout::max_value               0                       # Request fanout histogram
system.membus.snoop_fanout::total               53811                       # Request fanout histogram
system.membus.reqLayer0.occupancy           120461021                       # Layer occupancy (ticks)
system.membus.reqLayer0.utilization               0.1                       # Layer utilization (%)
system.membus.respLayer1.occupancy          171065000                       # Layer occupancy (ticks)
system.membus.respLayer1.utilization              0.2                       # Layer utilization (%)
system.tol2bus.snoop_filter.tot_requests      5565803                       # Total number of requests made to the snoop filter.
system.tol2bus.snoop_filter.hit_single_requests      2024506                       # Number of requests hitting in the snoop filter with a single holder of the requested data.
system.tol2bus.snoop_filter.hit_multi_requests      2018800                       # Number of requests hitting in the snoop filter with multiple (>1) holders of the requested data.
system.tol2bus.snoop_filter.tot_snoops          23508                       # Total number of snoops made to the snoop filter.
system.tol2bus.snoop_filter.hit_single_snoops        15256                       # Number of snoops hitting in the snoop filter with a single holder of the requested data.
system.tol2bus.snoop_filter.hit_multi_snoops         8252                       # Number of snoops hitting in the snoop filter with multiple (>1) holders of the requested data.
system.tol2bus.pwrStateResidencyTicks::UNDEFINED  96793008000                       # Cumulative time (in ticks) in various power states
system.tol2bus.trans_dist::ReadResp           2734211                       # Transaction distribution
system.tol2bus.trans_dist::ReadRespWithInvalidate           21                       # Transaction distribution
system.tol2bus.trans_dist::WritebackDirty        97656                       # Transaction distribution
system.tol2bus.trans_dist::WritebackClean      2595253                       # Transaction distribution
system.tol2bus.trans_dist::CleanEvict          107200                       # Transaction distribution
system.tol2bus.trans_dist::UpgradeReq            7872                       # Transaction distribution
system.tol2bus.trans_dist::SCUpgradeReq         11460                       # Transaction distribution
system.tol2bus.trans_dist::UpgradeResp          19332                       # Transaction distribution
system.tol2bus.trans_dist::SCUpgradeFailReq          300                       # Transaction distribution
system.tol2bus.trans_dist::UpgradeFailResp          300                       # Transaction distribution
system.tol2bus.trans_dist::ReadExReq            57347                       # Transaction distribution
system.tol2bus.trans_dist::ReadExResp           57347                       # Transaction distribution
system.tol2bus.trans_dist::ReadCleanReq       2596294                       # Transaction distribution
system.tol2bus.trans_dist::ReadSharedReq       137938                       # Transaction distribution
system.tol2bus.pkt_count_system.cpu0.icache.mem_side::system.l2.cpu_side      3470193                       # Packet count per connected master and slave (bytes)
system.tol2bus.pkt_count_system.cpu0.dcache.mem_side::system.l2.cpu_side       192645                       # Packet count per connected master and slave (bytes)
system.tol2bus.pkt_count_system.cpu1.icache.mem_side::system.l2.cpu_side       648221                       # Packet count per connected master and slave (bytes)
system.tol2bus.pkt_count_system.cpu1.dcache.mem_side::system.l2.cpu_side        54003                       # Packet count per connected master and slave (bytes)
system.tol2bus.pkt_count_system.cpu2.icache.mem_side::system.l2.cpu_side       651278                       # Packet count per connected master and slave (bytes)
system.tol2bus.pkt_count_system.cpu2.dcache.mem_side::system.l2.cpu_side        52470                       # Packet count per connected master and slave (bytes)
system.tol2bus.pkt_count_system.cpu3.icache.mem_side::system.l2.cpu_side       652673                       # Packet count per connected master and slave (bytes)
system.tol2bus.pkt_count_system.cpu3.dcache.mem_side::system.l2.cpu_side        58812                       # Packet count per connected master and slave (bytes)
system.tol2bus.pkt_count_system.cpu4.icache.mem_side::system.l2.cpu_side       646305                       # Packet count per connected master and slave (bytes)
system.tol2bus.pkt_count_system.cpu4.dcache.mem_side::system.l2.cpu_side        49247                       # Packet count per connected master and slave (bytes)
system.tol2bus.pkt_count_system.cpu5.icache.mem_side::system.l2.cpu_side       645422                       # Packet count per connected master and slave (bytes)
system.tol2bus.pkt_count_system.cpu5.dcache.mem_side::system.l2.cpu_side        54673                       # Packet count per connected master and slave (bytes)
system.tol2bus.pkt_count_system.cpu6.icache.mem_side::system.l2.cpu_side       638830                       # Packet count per connected master and slave (bytes)
system.tol2bus.pkt_count_system.cpu6.dcache.mem_side::system.l2.cpu_side        38360                       # Packet count per connected master and slave (bytes)
system.tol2bus.pkt_count_system.cpu7.icache.mem_side::system.l2.cpu_side       434891                       # Packet count per connected master and slave (bytes)
system.tol2bus.pkt_count_system.cpu7.dcache.mem_side::system.l2.cpu_side        36326                       # Packet count per connected master and slave (bytes)
system.tol2bus.pkt_count::total               8324349                       # Packet count per connected master and slave (bytes)
system.tol2bus.pkt_size_system.cpu0.icache.mem_side::system.l2.cpu_side    148058688                       # Cumulative packet size per connected master and slave (bytes)
system.tol2bus.pkt_size_system.cpu0.dcache.mem_side::system.l2.cpu_side      5605248                       # Cumulative packet size per connected master and slave (bytes)
system.tol2bus.pkt_size_system.cpu1.icache.mem_side::system.l2.cpu_side     27654528                       # Cumulative packet size per connected master and slave (bytes)
system.tol2bus.pkt_size_system.cpu1.dcache.mem_side::system.l2.cpu_side      1542528                       # Cumulative packet size per connected master and slave (bytes)
system.tol2bus.pkt_size_system.cpu2.icache.mem_side::system.l2.cpu_side     27785088                       # Cumulative packet size per connected master and slave (bytes)
system.tol2bus.pkt_size_system.cpu2.dcache.mem_side::system.l2.cpu_side      1491584                       # Cumulative packet size per connected master and slave (bytes)
system.tol2bus.pkt_size_system.cpu3.icache.mem_side::system.l2.cpu_side     27844480                       # Cumulative packet size per connected master and slave (bytes)
system.tol2bus.pkt_size_system.cpu3.dcache.mem_side::system.l2.cpu_side      1739840                       # Cumulative packet size per connected master and slave (bytes)
system.tol2bus.pkt_size_system.cpu4.icache.mem_side::system.l2.cpu_side     27572800                       # Cumulative packet size per connected master and slave (bytes)
system.tol2bus.pkt_size_system.cpu4.dcache.mem_side::system.l2.cpu_side      1404800                       # Cumulative packet size per connected master and slave (bytes)
system.tol2bus.pkt_size_system.cpu5.icache.mem_side::system.l2.cpu_side     27535232                       # Cumulative packet size per connected master and slave (bytes)
system.tol2bus.pkt_size_system.cpu5.dcache.mem_side::system.l2.cpu_side      1861696                       # Cumulative packet size per connected master and slave (bytes)
system.tol2bus.pkt_size_system.cpu6.icache.mem_side::system.l2.cpu_side     27254016                       # Cumulative packet size per connected master and slave (bytes)
system.tol2bus.pkt_size_system.cpu6.dcache.mem_side::system.l2.cpu_side      1207232                       # Cumulative packet size per connected master and slave (bytes)
system.tol2bus.pkt_size_system.cpu7.icache.mem_side::system.l2.cpu_side     18552384                       # Cumulative packet size per connected master and slave (bytes)
system.tol2bus.pkt_size_system.cpu7.dcache.mem_side::system.l2.cpu_side       959168                       # Cumulative packet size per connected master and slave (bytes)
system.tol2bus.pkt_size::total              348069312                       # Cumulative packet size per connected master and slave (bytes)
system.tol2bus.snoops                           98182                       # Total snoops (count)
system.tol2bus.snoopTraffic                   2957120                       # Total snoop traffic (bytes)
system.tol2bus.snoop_fanout::samples          2856736                       # Request fanout histogram
system.tol2bus.snoop_fanout::mean            1.092464                       # Request fanout histogram
system.tol2bus.snoop_fanout::stdev           1.700955                       # Request fanout histogram
system.tol2bus.snoop_fanout::underflows             0      0.00%      0.00% # Request fanout histogram
system.tol2bus.snoop_fanout::0                1544825     54.08%     54.08% # Request fanout histogram
system.tol2bus.snoop_fanout::1                 535845     18.76%     72.83% # Request fanout histogram
system.tol2bus.snoop_fanout::2                 344885     12.07%     84.91% # Request fanout histogram
system.tol2bus.snoop_fanout::3                 193431      6.77%     91.68% # Request fanout histogram
system.tol2bus.snoop_fanout::4                  80281      2.81%     94.49% # Request fanout histogram
system.tol2bus.snoop_fanout::5                  61049      2.14%     96.62% # Request fanout histogram
system.tol2bus.snoop_fanout::6                  45420      1.59%     98.21% # Request fanout histogram
system.tol2bus.snoop_fanout::7                  31326      1.10%     99.31% # Request fanout histogram
system.tol2bus.snoop_fanout::8                   5208      0.18%     99.49% # Request fanout histogram
system.tol2bus.snoop_fanout::9                   4102      0.14%     99.64% # Request fanout histogram
system.tol2bus.snoop_fanout::10                  3655      0.13%     99.77% # Request fanout histogram
system.tol2bus.snoop_fanout::11                  3015      0.11%     99.87% # Request fanout histogram
system.tol2bus.snoop_fanout::12                  1538      0.05%     99.92% # Request fanout histogram
system.tol2bus.snoop_fanout::13                   783      0.03%     99.95% # Request fanout histogram
system.tol2bus.snoop_fanout::14                   724      0.03%     99.98% # Request fanout histogram
system.tol2bus.snoop_fanout::15                   649      0.02%    100.00% # Request fanout histogram
system.tol2bus.snoop_fanout::16                     0      0.00%    100.00% # Request fanout histogram
system.tol2bus.snoop_fanout::overflows              0      0.00%    100.00% # Request fanout histogram
system.tol2bus.snoop_fanout::min_value              0                       # Request fanout histogram
system.tol2bus.snoop_fanout::max_value             15                       # Request fanout histogram
system.tol2bus.snoop_fanout::total            2856736                       # Request fanout histogram
system.tol2bus.reqLayer0.occupancy         5466396386                       # Layer occupancy (ticks)
system.tol2bus.reqLayer0.utilization              5.6                       # Layer utilization (%)
system.tol2bus.respLayer0.occupancy        1736596957                       # Layer occupancy (ticks)
system.tol2bus.respLayer0.utilization             1.8                       # Layer utilization (%)
system.tol2bus.respLayer1.occupancy         101651943                       # Layer occupancy (ticks)
system.tol2bus.respLayer1.utilization             0.1                       # Layer utilization (%)
system.tol2bus.respLayer4.occupancy         325646365                       # Layer occupancy (ticks)
system.tol2bus.respLayer4.utilization             0.3                       # Layer utilization (%)
system.tol2bus.respLayer5.occupancy          32810627                       # Layer occupancy (ticks)
system.tol2bus.respLayer5.utilization             0.0                       # Layer utilization (%)
system.tol2bus.respLayer8.occupancy         327517164                       # Layer occupancy (ticks)
system.tol2bus.respLayer8.utilization             0.3                       # Layer utilization (%)
system.tol2bus.respLayer9.occupancy          31613180                       # Layer occupancy (ticks)
system.tol2bus.respLayer9.utilization             0.0                       # Layer utilization (%)
system.tol2bus.respLayer12.occupancy        327842900                       # Layer occupancy (ticks)
system.tol2bus.respLayer12.utilization            0.3                       # Layer utilization (%)
system.tol2bus.respLayer13.occupancy         35207036                       # Layer occupancy (ticks)
system.tol2bus.respLayer13.utilization            0.0                       # Layer utilization (%)
system.tol2bus.respLayer16.occupancy        324874084                       # Layer occupancy (ticks)
system.tol2bus.respLayer16.utilization            0.3                       # Layer utilization (%)
system.tol2bus.respLayer17.occupancy         29630083                       # Layer occupancy (ticks)
system.tol2bus.respLayer17.utilization            0.0                       # Layer utilization (%)
system.tol2bus.respLayer20.occupancy        324708516                       # Layer occupancy (ticks)
system.tol2bus.respLayer20.utilization            0.3                       # Layer utilization (%)
system.tol2bus.respLayer21.occupancy         29786984                       # Layer occupancy (ticks)
system.tol2bus.respLayer21.utilization            0.0                       # Layer utilization (%)
system.tol2bus.respLayer24.occupancy        321221400                       # Layer occupancy (ticks)
system.tol2bus.respLayer24.utilization            0.3                       # Layer utilization (%)
system.tol2bus.respLayer25.occupancy         21672722                       # Layer occupancy (ticks)
system.tol2bus.respLayer25.utilization            0.0                       # Layer utilization (%)
system.tol2bus.respLayer28.occupancy        218742440                       # Layer occupancy (ticks)
system.tol2bus.respLayer28.utilization            0.2                       # Layer utilization (%)
system.tol2bus.respLayer29.occupancy         23766365                       # Layer occupancy (ticks)
system.tol2bus.respLayer29.utilization            0.0                       # Layer utilization (%)

---------- End Simulation Statistics   ----------
