
---------- Begin Simulation Statistics ----------
sim_seconds                                  0.087784                       # Number of seconds simulated
sim_ticks                                 87783654000                       # Number of ticks simulated
final_tick                                87783654000                       # Number of ticks from beginning of simulation (restored from checkpoints and never reset)
sim_freq                                 1000000000000                       # Frequency of simulated ticks
host_inst_rate                                 253026                       # Simulator instruction rate (inst/s)
host_op_rate                                   277889                       # Simulator op (including micro ops) rate (op/s)
host_tick_rate                               28739609                       # Simulator tick rate (ticks/s)
host_mem_usage                                 725644                       # Number of bytes of host memory used
host_seconds                                  3054.45                       # Real time elapsed on the host
sim_insts                                   772855665                       # Number of instructions simulated
sim_ops                                     848798307                       # Number of ops (including micro ops) simulated
system.voltage_domain.voltage                       1                       # Voltage in Volts
system.clk_domain.clock                          1000                       # Clock period in ticks
system.physmem.pwrStateResidencyTicks::UNDEFINED  87783654000                       # Cumulative time (in ticks) in various power states
system.physmem.bytes_read::cpu0.inst           209536                       # Number of bytes read from this memory
system.physmem.bytes_read::cpu0.data           160832                       # Number of bytes read from this memory
system.physmem.bytes_read::cpu1.inst            83264                       # Number of bytes read from this memory
system.physmem.bytes_read::cpu1.data            76672                       # Number of bytes read from this memory
system.physmem.bytes_read::cpu2.inst            82112                       # Number of bytes read from this memory
system.physmem.bytes_read::cpu2.data            70528                       # Number of bytes read from this memory
system.physmem.bytes_read::cpu3.inst            66624                       # Number of bytes read from this memory
system.physmem.bytes_read::cpu3.data            69504                       # Number of bytes read from this memory
system.physmem.bytes_read::cpu4.inst           105472                       # Number of bytes read from this memory
system.physmem.bytes_read::cpu4.data            65920                       # Number of bytes read from this memory
system.physmem.bytes_read::cpu5.inst            81920                       # Number of bytes read from this memory
system.physmem.bytes_read::cpu5.data            69376                       # Number of bytes read from this memory
system.physmem.bytes_read::cpu6.inst            84096                       # Number of bytes read from this memory
system.physmem.bytes_read::cpu6.data            85632                       # Number of bytes read from this memory
system.physmem.bytes_read::cpu7.inst           131008                       # Number of bytes read from this memory
system.physmem.bytes_read::cpu7.data            57984                       # Number of bytes read from this memory
system.physmem.bytes_read::total              1500480                       # Number of bytes read from this memory
system.physmem.bytes_inst_read::cpu0.inst       209536                       # Number of instructions bytes read from this memory
system.physmem.bytes_inst_read::cpu1.inst        83264                       # Number of instructions bytes read from this memory
system.physmem.bytes_inst_read::cpu2.inst        82112                       # Number of instructions bytes read from this memory
system.physmem.bytes_inst_read::cpu3.inst        66624                       # Number of instructions bytes read from this memory
system.physmem.bytes_inst_read::cpu4.inst       105472                       # Number of instructions bytes read from this memory
system.physmem.bytes_inst_read::cpu5.inst        81920                       # Number of instructions bytes read from this memory
system.physmem.bytes_inst_read::cpu6.inst        84096                       # Number of instructions bytes read from this memory
system.physmem.bytes_inst_read::cpu7.inst       131008                       # Number of instructions bytes read from this memory
system.physmem.bytes_inst_read::total          844032                       # Number of instructions bytes read from this memory
system.physmem.bytes_written::writebacks       344704                       # Number of bytes written to this memory
system.physmem.bytes_written::total            344704                       # Number of bytes written to this memory
system.physmem.num_reads::cpu0.inst              3274                       # Number of read requests responded to by this memory
system.physmem.num_reads::cpu0.data              2513                       # Number of read requests responded to by this memory
system.physmem.num_reads::cpu1.inst              1301                       # Number of read requests responded to by this memory
system.physmem.num_reads::cpu1.data              1198                       # Number of read requests responded to by this memory
system.physmem.num_reads::cpu2.inst              1283                       # Number of read requests responded to by this memory
system.physmem.num_reads::cpu2.data              1102                       # Number of read requests responded to by this memory
system.physmem.num_reads::cpu3.inst              1041                       # Number of read requests responded to by this memory
system.physmem.num_reads::cpu3.data              1086                       # Number of read requests responded to by this memory
system.physmem.num_reads::cpu4.inst              1648                       # Number of read requests responded to by this memory
system.physmem.num_reads::cpu4.data              1030                       # Number of read requests responded to by this memory
system.physmem.num_reads::cpu5.inst              1280                       # Number of read requests responded to by this memory
system.physmem.num_reads::cpu5.data              1084                       # Number of read requests responded to by this memory
system.physmem.num_reads::cpu6.inst              1314                       # Number of read requests responded to by this memory
system.physmem.num_reads::cpu6.data              1338                       # Number of read requests responded to by this memory
system.physmem.num_reads::cpu7.inst              2047                       # Number of read requests responded to by this memory
system.physmem.num_reads::cpu7.data               906                       # Number of read requests responded to by this memory
system.physmem.num_reads::total                 23445                       # Number of read requests responded to by this memory
system.physmem.num_writes::writebacks            5386                       # Number of write requests responded to by this memory
system.physmem.num_writes::total                 5386                       # Number of write requests responded to by this memory
system.physmem.bw_read::cpu0.inst             2386959                       # Total read bandwidth from this memory (bytes/s)
system.physmem.bw_read::cpu0.data             1832141                       # Total read bandwidth from this memory (bytes/s)
system.physmem.bw_read::cpu1.inst              948514                       # Total read bandwidth from this memory (bytes/s)
system.physmem.bw_read::cpu1.data              873420                       # Total read bandwidth from this memory (bytes/s)
system.physmem.bw_read::cpu2.inst              935391                       # Total read bandwidth from this memory (bytes/s)
system.physmem.bw_read::cpu2.data              803430                       # Total read bandwidth from this memory (bytes/s)
system.physmem.bw_read::cpu3.inst              758957                       # Total read bandwidth from this memory (bytes/s)
system.physmem.bw_read::cpu3.data              791765                       # Total read bandwidth from this memory (bytes/s)
system.physmem.bw_read::cpu4.inst             1201499                       # Total read bandwidth from this memory (bytes/s)
system.physmem.bw_read::cpu4.data              750937                       # Total read bandwidth from this memory (bytes/s)
system.physmem.bw_read::cpu5.inst              933203                       # Total read bandwidth from this memory (bytes/s)
system.physmem.bw_read::cpu5.data              790307                       # Total read bandwidth from this memory (bytes/s)
system.physmem.bw_read::cpu6.inst              957992                       # Total read bandwidth from this memory (bytes/s)
system.physmem.bw_read::cpu6.data              975489                       # Total read bandwidth from this memory (bytes/s)
system.physmem.bw_read::cpu7.inst             1492396                       # Total read bandwidth from this memory (bytes/s)
system.physmem.bw_read::cpu7.data              660533                       # Total read bandwidth from this memory (bytes/s)
system.physmem.bw_read::total                17092932                       # Total read bandwidth from this memory (bytes/s)
system.physmem.bw_inst_read::cpu0.inst        2386959                       # Instruction read bandwidth from this memory (bytes/s)
system.physmem.bw_inst_read::cpu1.inst         948514                       # Instruction read bandwidth from this memory (bytes/s)
system.physmem.bw_inst_read::cpu2.inst         935391                       # Instruction read bandwidth from this memory (bytes/s)
system.physmem.bw_inst_read::cpu3.inst         758957                       # Instruction read bandwidth from this memory (bytes/s)
system.physmem.bw_inst_read::cpu4.inst        1201499                       # Instruction read bandwidth from this memory (bytes/s)
system.physmem.bw_inst_read::cpu5.inst         933203                       # Instruction read bandwidth from this memory (bytes/s)
system.physmem.bw_inst_read::cpu6.inst         957992                       # Instruction read bandwidth from this memory (bytes/s)
system.physmem.bw_inst_read::cpu7.inst        1492396                       # Instruction read bandwidth from this memory (bytes/s)
system.physmem.bw_inst_read::total            9614911                       # Instruction read bandwidth from this memory (bytes/s)
system.physmem.bw_write::writebacks           3926745                       # Write bandwidth from this memory (bytes/s)
system.physmem.bw_write::total                3926745                       # Write bandwidth from this memory (bytes/s)
system.physmem.bw_total::writebacks           3926745                       # Total bandwidth to/from this memory (bytes/s)
system.physmem.bw_total::cpu0.inst            2386959                       # Total bandwidth to/from this memory (bytes/s)
system.physmem.bw_total::cpu0.data            1832141                       # Total bandwidth to/from this memory (bytes/s)
system.physmem.bw_total::cpu1.inst             948514                       # Total bandwidth to/from this memory (bytes/s)
system.physmem.bw_total::cpu1.data             873420                       # Total bandwidth to/from this memory (bytes/s)
system.physmem.bw_total::cpu2.inst             935391                       # Total bandwidth to/from this memory (bytes/s)
system.physmem.bw_total::cpu2.data             803430                       # Total bandwidth to/from this memory (bytes/s)
system.physmem.bw_total::cpu3.inst             758957                       # Total bandwidth to/from this memory (bytes/s)
system.physmem.bw_total::cpu3.data             791765                       # Total bandwidth to/from this memory (bytes/s)
system.physmem.bw_total::cpu4.inst            1201499                       # Total bandwidth to/from this memory (bytes/s)
system.physmem.bw_total::cpu4.data             750937                       # Total bandwidth to/from this memory (bytes/s)
system.physmem.bw_total::cpu5.inst             933203                       # Total bandwidth to/from this memory (bytes/s)
system.physmem.bw_total::cpu5.data             790307                       # Total bandwidth to/from this memory (bytes/s)
system.physmem.bw_total::cpu6.inst             957992                       # Total bandwidth to/from this memory (bytes/s)
system.physmem.bw_total::cpu6.data             975489                       # Total bandwidth to/from this memory (bytes/s)
system.physmem.bw_total::cpu7.inst            1492396                       # Total bandwidth to/from this memory (bytes/s)
system.physmem.bw_total::cpu7.data             660533                       # Total bandwidth to/from this memory (bytes/s)
system.physmem.bw_total::total               21019676                       # Total bandwidth to/from this memory (bytes/s)
system.pwrStateResidencyTicks::UNDEFINED  87783654000                       # Cumulative time (in ticks) in various power states
system.cpu0.branchPred.lookups               18428552                       # Number of BP lookups
system.cpu0.branchPred.condPredicted         11277434                       # Number of conditional branches predicted
system.cpu0.branchPred.condIncorrect           436158                       # Number of conditional branches incorrect
system.cpu0.branchPred.BTBLookups            10030155                       # Number of BTB lookups
system.cpu0.branchPred.BTBHits                8678573                       # Number of BTB hits
system.cpu0.branchPred.BTBCorrect                   0                       # Number of correct BTB predictions (this stat may not work properly.
system.cpu0.branchPred.BTBHitPct            86.524814                       # BTB Hit Percentage
system.cpu0.branchPred.usedRAS                2301930                       # Number of times the RAS was used to get a target.
system.cpu0.branchPred.RASInCorrect             40689                       # Number of incorrect RAS predictions.
system.cpu0.branchPred.indirectLookups         568735                       # Number of indirect predictor lookups.
system.cpu0.branchPred.indirectHits            564279                       # Number of indirect target hits.
system.cpu0.branchPred.indirectMisses            4456                       # Number of indirect misses.
system.cpu0.branchPredindirectMispredicted         9535                       # Number of mispredicted indirect branches.
system.cpu0.dstage2_mmu.stage2_tlb.walker.pwrStateResidencyTicks::UNDEFINED  87783654000                       # Cumulative time (in ticks) in various power states
system.cpu0.dstage2_mmu.stage2_tlb.walker.walks            0                       # Table walker walks requested
system.cpu0.dstage2_mmu.stage2_tlb.walker.walkRequestOrigin_Requested::Data            0                       # Table walker requests started/completed, data/inst
system.cpu0.dstage2_mmu.stage2_tlb.walker.walkRequestOrigin_Requested::Inst            0                       # Table walker requests started/completed, data/inst
system.cpu0.dstage2_mmu.stage2_tlb.walker.walkRequestOrigin_Requested::total            0                       # Table walker requests started/completed, data/inst
system.cpu0.dstage2_mmu.stage2_tlb.walker.walkRequestOrigin_Completed::Data            0                       # Table walker requests started/completed, data/inst
system.cpu0.dstage2_mmu.stage2_tlb.walker.walkRequestOrigin_Completed::Inst            0                       # Table walker requests started/completed, data/inst
system.cpu0.dstage2_mmu.stage2_tlb.walker.walkRequestOrigin_Completed::total            0                       # Table walker requests started/completed, data/inst
system.cpu0.dstage2_mmu.stage2_tlb.walker.walkRequestOrigin::total            0                       # Table walker requests started/completed, data/inst
system.cpu0.dstage2_mmu.stage2_tlb.inst_hits            0                       # ITB inst hits
system.cpu0.dstage2_mmu.stage2_tlb.inst_misses            0                       # ITB inst misses
system.cpu0.dstage2_mmu.stage2_tlb.read_hits            0                       # DTB read hits
system.cpu0.dstage2_mmu.stage2_tlb.read_misses            0                       # DTB read misses
system.cpu0.dstage2_mmu.stage2_tlb.write_hits            0                       # DTB write hits
system.cpu0.dstage2_mmu.stage2_tlb.write_misses            0                       # DTB write misses
system.cpu0.dstage2_mmu.stage2_tlb.flush_tlb            0                       # Number of times complete TLB was flushed
system.cpu0.dstage2_mmu.stage2_tlb.flush_tlb_mva            0                       # Number of times TLB was flushed by MVA
system.cpu0.dstage2_mmu.stage2_tlb.flush_tlb_mva_asid            0                       # Number of times TLB was flushed by MVA & ASID
system.cpu0.dstage2_mmu.stage2_tlb.flush_tlb_asid            0                       # Number of times TLB was flushed by ASID
system.cpu0.dstage2_mmu.stage2_tlb.flush_entries            0                       # Number of entries that have been flushed from TLB
system.cpu0.dstage2_mmu.stage2_tlb.align_faults            0                       # Number of TLB faults due to alignment restrictions
system.cpu0.dstage2_mmu.stage2_tlb.prefetch_faults            0                       # Number of TLB faults due to prefetch
system.cpu0.dstage2_mmu.stage2_tlb.domain_faults            0                       # Number of TLB faults due to domain restrictions
system.cpu0.dstage2_mmu.stage2_tlb.perms_faults            0                       # Number of TLB faults due to permissions restrictions
system.cpu0.dstage2_mmu.stage2_tlb.read_accesses            0                       # DTB read accesses
system.cpu0.dstage2_mmu.stage2_tlb.write_accesses            0                       # DTB write accesses
system.cpu0.dstage2_mmu.stage2_tlb.inst_accesses            0                       # ITB inst accesses
system.cpu0.dstage2_mmu.stage2_tlb.hits             0                       # DTB hits
system.cpu0.dstage2_mmu.stage2_tlb.misses            0                       # DTB misses
system.cpu0.dstage2_mmu.stage2_tlb.accesses            0                       # DTB accesses
system.cpu0.dtb.walker.pwrStateResidencyTicks::UNDEFINED  87783654000                       # Cumulative time (in ticks) in various power states
system.cpu0.dtb.walker.walks                        0                       # Table walker walks requested
system.cpu0.dtb.walker.walkRequestOrigin_Requested::Data            0                       # Table walker requests started/completed, data/inst
system.cpu0.dtb.walker.walkRequestOrigin_Requested::Inst            0                       # Table walker requests started/completed, data/inst
system.cpu0.dtb.walker.walkRequestOrigin_Requested::total            0                       # Table walker requests started/completed, data/inst
system.cpu0.dtb.walker.walkRequestOrigin_Completed::Data            0                       # Table walker requests started/completed, data/inst
system.cpu0.dtb.walker.walkRequestOrigin_Completed::Inst            0                       # Table walker requests started/completed, data/inst
system.cpu0.dtb.walker.walkRequestOrigin_Completed::total            0                       # Table walker requests started/completed, data/inst
system.cpu0.dtb.walker.walkRequestOrigin::total            0                       # Table walker requests started/completed, data/inst
system.cpu0.dtb.inst_hits                           0                       # ITB inst hits
system.cpu0.dtb.inst_misses                         0                       # ITB inst misses
system.cpu0.dtb.read_hits                           0                       # DTB read hits
system.cpu0.dtb.read_misses                         0                       # DTB read misses
system.cpu0.dtb.write_hits                          0                       # DTB write hits
system.cpu0.dtb.write_misses                        0                       # DTB write misses
system.cpu0.dtb.flush_tlb                           0                       # Number of times complete TLB was flushed
system.cpu0.dtb.flush_tlb_mva                       0                       # Number of times TLB was flushed by MVA
system.cpu0.dtb.flush_tlb_mva_asid                  0                       # Number of times TLB was flushed by MVA & ASID
system.cpu0.dtb.flush_tlb_asid                      0                       # Number of times TLB was flushed by ASID
system.cpu0.dtb.flush_entries                       0                       # Number of entries that have been flushed from TLB
system.cpu0.dtb.align_faults                        0                       # Number of TLB faults due to alignment restrictions
system.cpu0.dtb.prefetch_faults                     0                       # Number of TLB faults due to prefetch
system.cpu0.dtb.domain_faults                       0                       # Number of TLB faults due to domain restrictions
system.cpu0.dtb.perms_faults                        0                       # Number of TLB faults due to permissions restrictions
system.cpu0.dtb.read_accesses                       0                       # DTB read accesses
system.cpu0.dtb.write_accesses                      0                       # DTB write accesses
system.cpu0.dtb.inst_accesses                       0                       # ITB inst accesses
system.cpu0.dtb.hits                                0                       # DTB hits
system.cpu0.dtb.misses                              0                       # DTB misses
system.cpu0.dtb.accesses                            0                       # DTB accesses
system.cpu0.istage2_mmu.stage2_tlb.walker.pwrStateResidencyTicks::UNDEFINED  87783654000                       # Cumulative time (in ticks) in various power states
system.cpu0.istage2_mmu.stage2_tlb.walker.walks            0                       # Table walker walks requested
system.cpu0.istage2_mmu.stage2_tlb.walker.walkRequestOrigin_Requested::Data            0                       # Table walker requests started/completed, data/inst
system.cpu0.istage2_mmu.stage2_tlb.walker.walkRequestOrigin_Requested::Inst            0                       # Table walker requests started/completed, data/inst
system.cpu0.istage2_mmu.stage2_tlb.walker.walkRequestOrigin_Requested::total            0                       # Table walker requests started/completed, data/inst
system.cpu0.istage2_mmu.stage2_tlb.walker.walkRequestOrigin_Completed::Data            0                       # Table walker requests started/completed, data/inst
system.cpu0.istage2_mmu.stage2_tlb.walker.walkRequestOrigin_Completed::Inst            0                       # Table walker requests started/completed, data/inst
system.cpu0.istage2_mmu.stage2_tlb.walker.walkRequestOrigin_Completed::total            0                       # Table walker requests started/completed, data/inst
system.cpu0.istage2_mmu.stage2_tlb.walker.walkRequestOrigin::total            0                       # Table walker requests started/completed, data/inst
system.cpu0.istage2_mmu.stage2_tlb.inst_hits            0                       # ITB inst hits
system.cpu0.istage2_mmu.stage2_tlb.inst_misses            0                       # ITB inst misses
system.cpu0.istage2_mmu.stage2_tlb.read_hits            0                       # DTB read hits
system.cpu0.istage2_mmu.stage2_tlb.read_misses            0                       # DTB read misses
system.cpu0.istage2_mmu.stage2_tlb.write_hits            0                       # DTB write hits
system.cpu0.istage2_mmu.stage2_tlb.write_misses            0                       # DTB write misses
system.cpu0.istage2_mmu.stage2_tlb.flush_tlb            0                       # Number of times complete TLB was flushed
system.cpu0.istage2_mmu.stage2_tlb.flush_tlb_mva            0                       # Number of times TLB was flushed by MVA
system.cpu0.istage2_mmu.stage2_tlb.flush_tlb_mva_asid            0                       # Number of times TLB was flushed by MVA & ASID
system.cpu0.istage2_mmu.stage2_tlb.flush_tlb_asid            0                       # Number of times TLB was flushed by ASID
system.cpu0.istage2_mmu.stage2_tlb.flush_entries            0                       # Number of entries that have been flushed from TLB
system.cpu0.istage2_mmu.stage2_tlb.align_faults            0                       # Number of TLB faults due to alignment restrictions
system.cpu0.istage2_mmu.stage2_tlb.prefetch_faults            0                       # Number of TLB faults due to prefetch
system.cpu0.istage2_mmu.stage2_tlb.domain_faults            0                       # Number of TLB faults due to domain restrictions
system.cpu0.istage2_mmu.stage2_tlb.perms_faults            0                       # Number of TLB faults due to permissions restrictions
system.cpu0.istage2_mmu.stage2_tlb.read_accesses            0                       # DTB read accesses
system.cpu0.istage2_mmu.stage2_tlb.write_accesses            0                       # DTB write accesses
system.cpu0.istage2_mmu.stage2_tlb.inst_accesses            0                       # ITB inst accesses
system.cpu0.istage2_mmu.stage2_tlb.hits             0                       # DTB hits
system.cpu0.istage2_mmu.stage2_tlb.misses            0                       # DTB misses
system.cpu0.istage2_mmu.stage2_tlb.accesses            0                       # DTB accesses
system.cpu0.itb.walker.pwrStateResidencyTicks::UNDEFINED  87783654000                       # Cumulative time (in ticks) in various power states
system.cpu0.itb.walker.walks                        0                       # Table walker walks requested
system.cpu0.itb.walker.walkRequestOrigin_Requested::Data            0                       # Table walker requests started/completed, data/inst
system.cpu0.itb.walker.walkRequestOrigin_Requested::Inst            0                       # Table walker requests started/completed, data/inst
system.cpu0.itb.walker.walkRequestOrigin_Requested::total            0                       # Table walker requests started/completed, data/inst
system.cpu0.itb.walker.walkRequestOrigin_Completed::Data            0                       # Table walker requests started/completed, data/inst
system.cpu0.itb.walker.walkRequestOrigin_Completed::Inst            0                       # Table walker requests started/completed, data/inst
system.cpu0.itb.walker.walkRequestOrigin_Completed::total            0                       # Table walker requests started/completed, data/inst
system.cpu0.itb.walker.walkRequestOrigin::total            0                       # Table walker requests started/completed, data/inst
system.cpu0.itb.inst_hits                           0                       # ITB inst hits
system.cpu0.itb.inst_misses                         0                       # ITB inst misses
system.cpu0.itb.read_hits                           0                       # DTB read hits
system.cpu0.itb.read_misses                         0                       # DTB read misses
system.cpu0.itb.write_hits                          0                       # DTB write hits
system.cpu0.itb.write_misses                        0                       # DTB write misses
system.cpu0.itb.flush_tlb                           0                       # Number of times complete TLB was flushed
system.cpu0.itb.flush_tlb_mva                       0                       # Number of times TLB was flushed by MVA
system.cpu0.itb.flush_tlb_mva_asid                  0                       # Number of times TLB was flushed by MVA & ASID
system.cpu0.itb.flush_tlb_asid                      0                       # Number of times TLB was flushed by ASID
system.cpu0.itb.flush_entries                       0                       # Number of entries that have been flushed from TLB
system.cpu0.itb.align_faults                        0                       # Number of TLB faults due to alignment restrictions
system.cpu0.itb.prefetch_faults                     0                       # Number of TLB faults due to prefetch
system.cpu0.itb.domain_faults                       0                       # Number of TLB faults due to domain restrictions
system.cpu0.itb.perms_faults                        0                       # Number of TLB faults due to permissions restrictions
system.cpu0.itb.read_accesses                       0                       # DTB read accesses
system.cpu0.itb.write_accesses                      0                       # DTB write accesses
system.cpu0.itb.inst_accesses                       0                       # ITB inst accesses
system.cpu0.itb.hits                                0                       # DTB hits
system.cpu0.itb.misses                              0                       # DTB misses
system.cpu0.itb.accesses                            0                       # DTB accesses
system.cpu0.workload.num_syscalls              254172                       # Number of system calls
system.cpu0.pwrStateResidencyTicks::ON    87783654000                       # Cumulative time (in ticks) in various power states
system.cpu0.numCycles                        87783655                       # number of cpu cycles simulated
system.cpu0.numWorkItemsStarted                     0                       # number of work items this cpu started
system.cpu0.numWorkItemsCompleted                   0                       # number of work items this cpu completed
system.cpu0.fetch.icacheStallCycles          19086317                       # Number of cycles fetch is stalled on an Icache miss
system.cpu0.fetch.Insts                     103425494                       # Number of instructions fetch has processed
system.cpu0.fetch.Branches                   18428552                       # Number of branches that fetch encountered
system.cpu0.fetch.predictedBranches          11544782                       # Number of branches that fetch has predicted taken
system.cpu0.fetch.Cycles                     68161455                       # Number of cycles fetch has run and was not squashing or blocked
system.cpu0.fetch.SquashCycles                 880179                       # Number of cycles fetch has spent squashing
system.cpu0.fetch.MiscStallCycles                   9                       # Number of cycles fetch has spent waiting on interrupts, or bad addresses, or out of MSHRs
system.cpu0.fetch.PendingTrapStallCycles          323                       # Number of stall cycles due to pending traps
system.cpu0.fetch.IcacheWaitRetryStallCycles            2                       # Number of stall cycles due to full MSHR
system.cpu0.fetch.CacheLines                 14354139                       # Number of cache lines fetched
system.cpu0.fetch.IcacheSquashes                86140                       # Number of outstanding Icache misses that were squashed
system.cpu0.fetch.rateDist::samples          87688195                       # Number of instructions fetched each cycle (Total)
system.cpu0.fetch.rateDist::mean             1.333663                       # Number of instructions fetched each cycle (Total)
system.cpu0.fetch.rateDist::stdev            0.881373                       # Number of instructions fetched each cycle (Total)
system.cpu0.fetch.rateDist::underflows              0      0.00%      0.00% # Number of instructions fetched each cycle (Total)
system.cpu0.fetch.rateDist::0                24310960     27.72%     27.72% # Number of instructions fetched each cycle (Total)
system.cpu0.fetch.rateDist::1                 9807957     11.19%     38.91% # Number of instructions fetched each cycle (Total)
system.cpu0.fetch.rateDist::2                53569278     61.09%    100.00% # Number of instructions fetched each cycle (Total)
system.cpu0.fetch.rateDist::overflows               0      0.00%    100.00% # Number of instructions fetched each cycle (Total)
system.cpu0.fetch.rateDist::min_value               0                       # Number of instructions fetched each cycle (Total)
system.cpu0.fetch.rateDist::max_value               2                       # Number of instructions fetched each cycle (Total)
system.cpu0.fetch.rateDist::total            87688195                       # Number of instructions fetched each cycle (Total)
system.cpu0.fetch.branchRate                 0.209931                       # Number of branch fetches per cycle
system.cpu0.fetch.rate                       1.178186                       # Number of inst fetches per cycle
system.cpu0.decode.IdleCycles                16676409                       # Number of cycles decode is idle
system.cpu0.decode.BlockedCycles             11526985                       # Number of cycles decode is blocked
system.cpu0.decode.RunCycles                 47242496                       # Number of cycles decode is running
system.cpu0.decode.UnblockCycles             11835274                       # Number of cycles decode is unblocking
system.cpu0.decode.SquashCycles                407031                       # Number of cycles decode is squashing
system.cpu0.decode.BranchResolved             4928749                       # Number of times decode resolved a branch
system.cpu0.decode.BranchMispred                33333                       # Number of times decode detected a branch misprediction
system.cpu0.decode.DecodedInsts             114547697                       # Number of instructions handled by decode
system.cpu0.decode.SquashedInsts                57753                       # Number of squashed instructions handled by decode
system.cpu0.rename.SquashCycles                407031                       # Number of cycles rename is squashing
system.cpu0.rename.IdleCycles                19249225                       # Number of cycles rename is idle
system.cpu0.rename.BlockCycles                1343291                       # Number of cycles rename is blocking
system.cpu0.rename.serializeStallCycles        570867                       # count of cycles rename stalled for serializing inst
system.cpu0.rename.RunCycles                 56472330                       # Number of cycles rename is running
system.cpu0.rename.UnblockCycles              9645451                       # Number of cycles rename is unblocking
system.cpu0.rename.RenamedInsts             113937066                       # Number of instructions processed by rename
system.cpu0.rename.IQFullEvents               7346284                       # Number of times rename has blocked due to IQ full
system.cpu0.rename.LQFullEvents                 52457                       # Number of times rename has blocked due to LQ full
system.cpu0.rename.SQFullEvents                  3546                       # Number of times rename has blocked due to SQ full
system.cpu0.rename.RenamedOperands          143003494                       # Number of destination operands rename has renamed
system.cpu0.rename.RenameLookups            526380223                       # Number of register rename lookups that rename has made
system.cpu0.rename.int_rename_lookups       145556918                       # Number of integer rename lookups
system.cpu0.rename.fp_rename_lookups               16                       # Number of floating rename lookups
system.cpu0.rename.CommittedMaps            123848326                       # Number of HB maps that are committed
system.cpu0.rename.UndoneMaps                19155168                       # Number of HB maps that are undone due to squashing
system.cpu0.rename.serializingInsts             20918                       # count of serializing insts renamed
system.cpu0.rename.tempSerializingInsts          9601                       # count of temporary serializing insts renamed
system.cpu0.rename.skidInsts                 10340394                       # count of insts added to the skid buffer
system.cpu0.memDep0.insertedLoads            14680319                       # Number of loads inserted to the mem dependence unit.
system.cpu0.memDep0.insertedStores            9316679                       # Number of stores inserted to the mem dependence unit.
system.cpu0.memDep0.conflictingLoads          4383214                       # Number of conflicting loads.
system.cpu0.memDep0.conflictingStores         1669473                       # Number of conflicting stores.
system.cpu0.iq.iqInstsAdded                 112737877                       # Number of instructions added to the IQ (excludes non-spec)
system.cpu0.iq.iqNonSpecInstsAdded              18511                       # Number of non-speculative instructions added to the IQ
system.cpu0.iq.iqInstsIssued                102261856                       # Number of instructions issued
system.cpu0.iq.iqSquashedInstsIssued          1447380                       # Number of squashed instructions issued
system.cpu0.iq.iqSquashedInstsExamined       12314295                       # Number of squashed instructions iterated over during squash; mainly for profiling
system.cpu0.iq.iqSquashedOperandsExamined     49734999                       # Number of squashed operands that are examined and possibly removed from graph
system.cpu0.iq.iqSquashedNonSpecRemoved           894                       # Number of squashed non-spec instructions that were removed
system.cpu0.iq.issued_per_cycle::samples     87688195                       # Number of insts issued each cycle
system.cpu0.iq.issued_per_cycle::mean        1.166199                       # Number of insts issued each cycle
system.cpu0.iq.issued_per_cycle::stdev       0.551642                       # Number of insts issued each cycle
system.cpu0.iq.issued_per_cycle::underflows            0      0.00%      0.00% # Number of insts issued each cycle
system.cpu0.iq.issued_per_cycle::0            7266399      8.29%      8.29% # Number of insts issued each cycle
system.cpu0.iq.issued_per_cycle::1           58581736     66.81%     75.09% # Number of insts issued each cycle
system.cpu0.iq.issued_per_cycle::2           21840060     24.91%    100.00% # Number of insts issued each cycle
system.cpu0.iq.issued_per_cycle::overflows            0      0.00%    100.00% # Number of insts issued each cycle
system.cpu0.iq.issued_per_cycle::min_value            0                       # Number of insts issued each cycle
system.cpu0.iq.issued_per_cycle::max_value            2                       # Number of insts issued each cycle
system.cpu0.iq.issued_per_cycle::total       87688195                       # Number of insts issued each cycle
system.cpu0.iq.fu_full::No_OpClass                  0      0.00%      0.00% # attempts to use FU when none available
system.cpu0.iq.fu_full::IntAlu               61008330     94.10%     94.10% # attempts to use FU when none available
system.cpu0.iq.fu_full::IntMult                     0      0.00%     94.10% # attempts to use FU when none available
system.cpu0.iq.fu_full::IntDiv                      0      0.00%     94.10% # attempts to use FU when none available
system.cpu0.iq.fu_full::FloatAdd                    0      0.00%     94.10% # attempts to use FU when none available
system.cpu0.iq.fu_full::FloatCmp                    0      0.00%     94.10% # attempts to use FU when none available
system.cpu0.iq.fu_full::FloatCvt                    0      0.00%     94.10% # attempts to use FU when none available
system.cpu0.iq.fu_full::FloatMult                   0      0.00%     94.10% # attempts to use FU when none available
system.cpu0.iq.fu_full::FloatMultAcc                0      0.00%     94.10% # attempts to use FU when none available
system.cpu0.iq.fu_full::FloatDiv                    0      0.00%     94.10% # attempts to use FU when none available
system.cpu0.iq.fu_full::FloatMisc                   0      0.00%     94.10% # attempts to use FU when none available
system.cpu0.iq.fu_full::FloatSqrt                   0      0.00%     94.10% # attempts to use FU when none available
system.cpu0.iq.fu_full::SimdAdd                     0      0.00%     94.10% # attempts to use FU when none available
system.cpu0.iq.fu_full::SimdAddAcc                  0      0.00%     94.10% # attempts to use FU when none available
system.cpu0.iq.fu_full::SimdAlu                     0      0.00%     94.10% # attempts to use FU when none available
system.cpu0.iq.fu_full::SimdCmp                     0      0.00%     94.10% # attempts to use FU when none available
system.cpu0.iq.fu_full::SimdCvt                     0      0.00%     94.10% # attempts to use FU when none available
system.cpu0.iq.fu_full::SimdMisc                    0      0.00%     94.10% # attempts to use FU when none available
system.cpu0.iq.fu_full::SimdMult                    0      0.00%     94.10% # attempts to use FU when none available
system.cpu0.iq.fu_full::SimdMultAcc                 0      0.00%     94.10% # attempts to use FU when none available
system.cpu0.iq.fu_full::SimdShift                   0      0.00%     94.10% # attempts to use FU when none available
system.cpu0.iq.fu_full::SimdShiftAcc                0      0.00%     94.10% # attempts to use FU when none available
system.cpu0.iq.fu_full::SimdSqrt                    0      0.00%     94.10% # attempts to use FU when none available
system.cpu0.iq.fu_full::SimdFloatAdd                0      0.00%     94.10% # attempts to use FU when none available
system.cpu0.iq.fu_full::SimdFloatAlu                0      0.00%     94.10% # attempts to use FU when none available
system.cpu0.iq.fu_full::SimdFloatCmp                0      0.00%     94.10% # attempts to use FU when none available
system.cpu0.iq.fu_full::SimdFloatCvt                0      0.00%     94.10% # attempts to use FU when none available
system.cpu0.iq.fu_full::SimdFloatDiv                0      0.00%     94.10% # attempts to use FU when none available
system.cpu0.iq.fu_full::SimdFloatMisc               0      0.00%     94.10% # attempts to use FU when none available
system.cpu0.iq.fu_full::SimdFloatMult               0      0.00%     94.10% # attempts to use FU when none available
system.cpu0.iq.fu_full::SimdFloatMultAcc            0      0.00%     94.10% # attempts to use FU when none available
system.cpu0.iq.fu_full::SimdFloatSqrt               0      0.00%     94.10% # attempts to use FU when none available
system.cpu0.iq.fu_full::MemRead               2439988      3.76%     97.86% # attempts to use FU when none available
system.cpu0.iq.fu_full::MemWrite              1388440      2.14%    100.00% # attempts to use FU when none available
system.cpu0.iq.fu_full::FloatMemRead                0      0.00%    100.00% # attempts to use FU when none available
system.cpu0.iq.fu_full::FloatMemWrite               0      0.00%    100.00% # attempts to use FU when none available
system.cpu0.iq.fu_full::IprAccess                   0      0.00%    100.00% # attempts to use FU when none available
system.cpu0.iq.fu_full::InstPrefetch                0      0.00%    100.00% # attempts to use FU when none available
system.cpu0.iq.FU_type_0::No_OpClass                0      0.00%      0.00% # Type of FU issued
system.cpu0.iq.FU_type_0::IntAlu             78717165     76.98%     76.98% # Type of FU issued
system.cpu0.iq.FU_type_0::IntMult              523688      0.51%     77.49% # Type of FU issued
system.cpu0.iq.FU_type_0::IntDiv                    0      0.00%     77.49% # Type of FU issued
system.cpu0.iq.FU_type_0::FloatAdd                  0      0.00%     77.49% # Type of FU issued
system.cpu0.iq.FU_type_0::FloatCmp                  0      0.00%     77.49% # Type of FU issued
system.cpu0.iq.FU_type_0::FloatCvt                  0      0.00%     77.49% # Type of FU issued
system.cpu0.iq.FU_type_0::FloatMult                 0      0.00%     77.49% # Type of FU issued
system.cpu0.iq.FU_type_0::FloatMultAcc              0      0.00%     77.49% # Type of FU issued
system.cpu0.iq.FU_type_0::FloatDiv                  0      0.00%     77.49% # Type of FU issued
system.cpu0.iq.FU_type_0::FloatMisc                 0      0.00%     77.49% # Type of FU issued
system.cpu0.iq.FU_type_0::FloatSqrt                 0      0.00%     77.49% # Type of FU issued
system.cpu0.iq.FU_type_0::SimdAdd                   0      0.00%     77.49% # Type of FU issued
system.cpu0.iq.FU_type_0::SimdAddAcc                0      0.00%     77.49% # Type of FU issued
system.cpu0.iq.FU_type_0::SimdAlu                   0      0.00%     77.49% # Type of FU issued
system.cpu0.iq.FU_type_0::SimdCmp                   0      0.00%     77.49% # Type of FU issued
system.cpu0.iq.FU_type_0::SimdCvt                   0      0.00%     77.49% # Type of FU issued
system.cpu0.iq.FU_type_0::SimdMisc                  0      0.00%     77.49% # Type of FU issued
system.cpu0.iq.FU_type_0::SimdMult                  0      0.00%     77.49% # Type of FU issued
system.cpu0.iq.FU_type_0::SimdMultAcc               0      0.00%     77.49% # Type of FU issued
system.cpu0.iq.FU_type_0::SimdShift                 0      0.00%     77.49% # Type of FU issued
system.cpu0.iq.FU_type_0::SimdShiftAcc              0      0.00%     77.49% # Type of FU issued
system.cpu0.iq.FU_type_0::SimdSqrt                  0      0.00%     77.49% # Type of FU issued
system.cpu0.iq.FU_type_0::SimdFloatAdd              0      0.00%     77.49% # Type of FU issued
system.cpu0.iq.FU_type_0::SimdFloatAlu              0      0.00%     77.49% # Type of FU issued
system.cpu0.iq.FU_type_0::SimdFloatCmp              0      0.00%     77.49% # Type of FU issued
system.cpu0.iq.FU_type_0::SimdFloatCvt              0      0.00%     77.49% # Type of FU issued
system.cpu0.iq.FU_type_0::SimdFloatDiv              0      0.00%     77.49% # Type of FU issued
system.cpu0.iq.FU_type_0::SimdFloatMisc         11308      0.01%     77.50% # Type of FU issued
system.cpu0.iq.FU_type_0::SimdFloatMult             0      0.00%     77.50% # Type of FU issued
system.cpu0.iq.FU_type_0::SimdFloatMultAcc            0      0.00%     77.50% # Type of FU issued
system.cpu0.iq.FU_type_0::SimdFloatSqrt             0      0.00%     77.50% # Type of FU issued
system.cpu0.iq.FU_type_0::MemRead            14200228     13.89%     91.39% # Type of FU issued
system.cpu0.iq.FU_type_0::MemWrite            8809451      8.61%    100.00% # Type of FU issued
system.cpu0.iq.FU_type_0::FloatMemRead              0      0.00%    100.00% # Type of FU issued
system.cpu0.iq.FU_type_0::FloatMemWrite            16      0.00%    100.00% # Type of FU issued
system.cpu0.iq.FU_type_0::IprAccess                 0      0.00%    100.00% # Type of FU issued
system.cpu0.iq.FU_type_0::InstPrefetch              0      0.00%    100.00% # Type of FU issued
system.cpu0.iq.FU_type_0::total             102261856                       # Type of FU issued
system.cpu0.iq.rate                          1.164930                       # Inst issue rate
system.cpu0.iq.fu_busy_cnt                   64836758                       # FU busy when requested
system.cpu0.iq.fu_busy_rate                  0.634027                       # FU busy rate (busy events/executed inst)
system.cpu0.iq.int_inst_queue_reads         358496013                       # Number of integer instruction queue reads
system.cpu0.iq.int_inst_queue_writes        125072439                       # Number of integer instruction queue writes
system.cpu0.iq.int_inst_queue_wakeup_accesses    101887174                       # Number of integer instruction queue wakeup accesses
system.cpu0.iq.fp_inst_queue_reads                 32                       # Number of floating instruction queue reads
system.cpu0.iq.fp_inst_queue_writes                16                       # Number of floating instruction queue writes
system.cpu0.iq.fp_inst_queue_wakeup_accesses           16                       # Number of floating instruction queue wakeup accesses
system.cpu0.iq.int_alu_accesses             167098598                       # Number of integer alu accesses
system.cpu0.iq.fp_alu_accesses                     16                       # Number of floating point alu accesses
system.cpu0.iew.lsq.thread0.forwLoads         1901144                       # Number of loads that had data forwarded from stores
system.cpu0.iew.lsq.thread0.invAddrLoads            0                       # Number of loads ignored due to an invalid address
system.cpu0.iew.lsq.thread0.squashedLoads      1107411                       # Number of loads squashed
system.cpu0.iew.lsq.thread0.ignoredResponses          362                       # Number of memory responses ignored because the instruction is squashed
system.cpu0.iew.lsq.thread0.memOrderViolation         1786                       # Number of memory ordering violations
system.cpu0.iew.lsq.thread0.squashedStores       657930                       # Number of stores squashed
system.cpu0.iew.lsq.thread0.invAddrSwpfs            0                       # Number of software prefetches ignored due to an invalid address
system.cpu0.iew.lsq.thread0.blockedLoads            0                       # Number of blocked loads due to partial load-store forwarding
system.cpu0.iew.lsq.thread0.rescheduledLoads       151585                       # Number of loads that were rescheduled
system.cpu0.iew.lsq.thread0.cacheBlocked         1130                       # Number of times an access to memory failed due to the cache being blocked
system.cpu0.iew.iewIdleCycles                       0                       # Number of cycles IEW is idle
system.cpu0.iew.iewSquashCycles                407031                       # Number of cycles IEW is squashing
system.cpu0.iew.iewBlockCycles                1315636                       # Number of cycles IEW is blocking
system.cpu0.iew.iewUnblockCycles                21907                       # Number of cycles IEW is unblocking
system.cpu0.iew.iewDispatchedInsts          112756432                       # Number of instructions dispatched to IQ
system.cpu0.iew.iewDispSquashedInsts            82044                       # Number of squashed instructions skipped by dispatch
system.cpu0.iew.iewDispLoadInsts             14680319                       # Number of dispatched load instructions
system.cpu0.iew.iewDispStoreInsts             9316679                       # Number of dispatched store instructions
system.cpu0.iew.iewDispNonSpecInsts              9425                       # Number of dispatched non-speculative instructions
system.cpu0.iew.iewIQFullEvents                   307                       # Number of times the IQ has become full, causing a stall
system.cpu0.iew.iewLSQFullEvents                 1376                       # Number of times the LSQ has become full, causing a stall
system.cpu0.iew.memOrderViolationEvents          1786                       # Number of memory order violations
system.cpu0.iew.predictedTakenIncorrect        216107                       # Number of branches that were predicted taken incorrectly
system.cpu0.iew.predictedNotTakenIncorrect       210305                       # Number of branches that were predicted not taken incorrectly
system.cpu0.iew.branchMispredicts              426412                       # Number of branch mispredicts detected at execute
system.cpu0.iew.iewExecutedInsts            102124521                       # Number of executed instructions
system.cpu0.iew.iewExecLoadInsts             14152958                       # Number of load instructions executed
system.cpu0.iew.iewExecSquashedInsts           137335                       # Number of squashed instructions skipped in execute
system.cpu0.iew.exec_swp                            0                       # number of swp insts executed
system.cpu0.iew.exec_nop                           44                       # number of nop insts executed
system.cpu0.iew.exec_refs                    22938456                       # number of memory reference insts executed
system.cpu0.iew.exec_branches                15917428                       # Number of branches executed
system.cpu0.iew.exec_stores                   8785498                       # Number of stores executed
system.cpu0.iew.exec_rate                    1.163366                       # Inst execution rate
system.cpu0.iew.wb_sent                     101911466                       # cumulative count of insts sent to commit
system.cpu0.iew.wb_count                    101887190                       # cumulative count of insts written-back
system.cpu0.iew.wb_producers                 73450625                       # num instructions producing a value
system.cpu0.iew.wb_consumers                169604332                       # num instructions consuming a value
system.cpu0.iew.wb_rate                      1.160662                       # insts written-back per cycle
system.cpu0.iew.wb_fanout                    0.433070                       # average fanout of values written-back
system.cpu0.commit.commitSquashedInsts       12314347                       # The number of squashed insts skipped by commit
system.cpu0.commit.commitNonSpecStalls          17617                       # The number of times commit has been forced to stall to communicate backwards
system.cpu0.commit.branchMispredicts           403100                       # The number of times a branch was mispredicted
system.cpu0.commit.committed_per_cycle::samples     85975883                       # Number of insts commited each cycle
system.cpu0.commit.committed_per_cycle::mean     1.168259                       # Number of insts commited each cycle
system.cpu0.commit.committed_per_cycle::stdev     1.032604                       # Number of insts commited each cycle
system.cpu0.commit.committed_per_cycle::underflows            0      0.00%      0.00% # Number of insts commited each cycle
system.cpu0.commit.committed_per_cycle::0     11518466     13.40%     13.40% # Number of insts commited each cycle
system.cpu0.commit.committed_per_cycle::1     61102181     71.07%     84.47% # Number of insts commited each cycle
system.cpu0.commit.committed_per_cycle::2      8027739      9.34%     93.80% # Number of insts commited each cycle
system.cpu0.commit.committed_per_cycle::3      2479248      2.88%     96.69% # Number of insts commited each cycle
system.cpu0.commit.committed_per_cycle::4      1053423      1.23%     97.91% # Number of insts commited each cycle
system.cpu0.commit.committed_per_cycle::5       266493      0.31%     98.22% # Number of insts commited each cycle
system.cpu0.commit.committed_per_cycle::6       525570      0.61%     98.83% # Number of insts commited each cycle
system.cpu0.commit.committed_per_cycle::7       874991      1.02%     99.85% # Number of insts commited each cycle
system.cpu0.commit.committed_per_cycle::8       127772      0.15%    100.00% # Number of insts commited each cycle
system.cpu0.commit.committed_per_cycle::overflows            0      0.00%    100.00% # Number of insts commited each cycle
system.cpu0.commit.committed_per_cycle::min_value            0                       # Number of insts commited each cycle
system.cpu0.commit.committed_per_cycle::max_value            8                       # Number of insts commited each cycle
system.cpu0.commit.committed_per_cycle::total     85975883                       # Number of insts commited each cycle
system.cpu0.commit.committedInsts            88872605                       # Number of instructions committed
system.cpu0.commit.committedOps             100442093                       # Number of ops (including micro ops) committed
system.cpu0.commit.swp_count                        0                       # Number of s/w prefetches committed
system.cpu0.commit.refs                      22231657                       # Number of memory references committed
system.cpu0.commit.loads                     13572908                       # Number of loads committed
system.cpu0.commit.membars                       8937                       # Number of memory barriers committed
system.cpu0.commit.branches                  15770792                       # Number of branches committed
system.cpu0.commit.fp_insts                        16                       # Number of committed floating point instructions.
system.cpu0.commit.int_insts                 90822430                       # Number of committed integer instructions.
system.cpu0.commit.function_calls             2565179                       # Number of function calls committed.
system.cpu0.commit.op_class_0::No_OpClass            0      0.00%      0.00% # Class of committed instruction
system.cpu0.commit.op_class_0::IntAlu        77693980     77.35%     77.35% # Class of committed instruction
system.cpu0.commit.op_class_0::IntMult         505148      0.50%     77.85% # Class of committed instruction
system.cpu0.commit.op_class_0::IntDiv               0      0.00%     77.85% # Class of committed instruction
system.cpu0.commit.op_class_0::FloatAdd             0      0.00%     77.85% # Class of committed instruction
system.cpu0.commit.op_class_0::FloatCmp             0      0.00%     77.85% # Class of committed instruction
system.cpu0.commit.op_class_0::FloatCvt             0      0.00%     77.85% # Class of committed instruction
system.cpu0.commit.op_class_0::FloatMult            0      0.00%     77.85% # Class of committed instruction
system.cpu0.commit.op_class_0::FloatMultAcc            0      0.00%     77.85% # Class of committed instruction
system.cpu0.commit.op_class_0::FloatDiv             0      0.00%     77.85% # Class of committed instruction
system.cpu0.commit.op_class_0::FloatMisc            0      0.00%     77.85% # Class of committed instruction
system.cpu0.commit.op_class_0::FloatSqrt            0      0.00%     77.85% # Class of committed instruction
system.cpu0.commit.op_class_0::SimdAdd              0      0.00%     77.85% # Class of committed instruction
system.cpu0.commit.op_class_0::SimdAddAcc            0      0.00%     77.85% # Class of committed instruction
system.cpu0.commit.op_class_0::SimdAlu              0      0.00%     77.85% # Class of committed instruction
system.cpu0.commit.op_class_0::SimdCmp              0      0.00%     77.85% # Class of committed instruction
system.cpu0.commit.op_class_0::SimdCvt              0      0.00%     77.85% # Class of committed instruction
system.cpu0.commit.op_class_0::SimdMisc             0      0.00%     77.85% # Class of committed instruction
system.cpu0.commit.op_class_0::SimdMult             0      0.00%     77.85% # Class of committed instruction
system.cpu0.commit.op_class_0::SimdMultAcc            0      0.00%     77.85% # Class of committed instruction
system.cpu0.commit.op_class_0::SimdShift            0      0.00%     77.85% # Class of committed instruction
system.cpu0.commit.op_class_0::SimdShiftAcc            0      0.00%     77.85% # Class of committed instruction
system.cpu0.commit.op_class_0::SimdSqrt             0      0.00%     77.85% # Class of committed instruction
system.cpu0.commit.op_class_0::SimdFloatAdd            0      0.00%     77.85% # Class of committed instruction
system.cpu0.commit.op_class_0::SimdFloatAlu            0      0.00%     77.85% # Class of committed instruction
system.cpu0.commit.op_class_0::SimdFloatCmp            0      0.00%     77.85% # Class of committed instruction
system.cpu0.commit.op_class_0::SimdFloatCvt            0      0.00%     77.85% # Class of committed instruction
system.cpu0.commit.op_class_0::SimdFloatDiv            0      0.00%     77.85% # Class of committed instruction
system.cpu0.commit.op_class_0::SimdFloatMisc        11308      0.01%     77.87% # Class of committed instruction
system.cpu0.commit.op_class_0::SimdFloatMult            0      0.00%     77.87% # Class of committed instruction
system.cpu0.commit.op_class_0::SimdFloatMultAcc            0      0.00%     77.87% # Class of committed instruction
system.cpu0.commit.op_class_0::SimdFloatSqrt            0      0.00%     77.87% # Class of committed instruction
system.cpu0.commit.op_class_0::MemRead       13572908     13.51%     91.38% # Class of committed instruction
system.cpu0.commit.op_class_0::MemWrite       8658733      8.62%    100.00% # Class of committed instruction
system.cpu0.commit.op_class_0::FloatMemRead            0      0.00%    100.00% # Class of committed instruction
system.cpu0.commit.op_class_0::FloatMemWrite           16      0.00%    100.00% # Class of committed instruction
system.cpu0.commit.op_class_0::IprAccess            0      0.00%    100.00% # Class of committed instruction
system.cpu0.commit.op_class_0::InstPrefetch            0      0.00%    100.00% # Class of committed instruction
system.cpu0.commit.op_class_0::total        100442093                       # Class of committed instruction
system.cpu0.commit.bw_lim_events               127772                       # number cycles where commit BW limit reached
system.cpu0.rob.rob_reads                   198574216                       # The number of ROB reads
system.cpu0.rob.rob_writes                  227225649                       # The number of ROB writes
system.cpu0.timesIdled                           6702                       # Number of times that the entire CPU went into an idle state and unscheduled itself
system.cpu0.idleCycles                          95460                       # Total number of cycles that the CPU has spent unscheduled due to idling
system.cpu0.committedInsts                   88872605                       # Number of Instructions Simulated
system.cpu0.committedOps                    100442093                       # Number of Ops (including micro ops) Simulated
system.cpu0.cpi                              0.987747                       # CPI: Cycles Per Instruction
system.cpu0.cpi_total                        0.987747                       # CPI: Total CPI of All Threads
system.cpu0.ipc                              1.012405                       # IPC: Instructions Per Cycle
system.cpu0.ipc_total                        1.012405                       # IPC: Total IPC of All Threads
system.cpu0.int_regfile_reads               119989930                       # number of integer regfile reads
system.cpu0.int_regfile_writes               70868043                       # number of integer regfile writes
system.cpu0.fp_regfile_reads                     1136                       # number of floating regfile reads
system.cpu0.cc_regfile_reads                351374948                       # number of cc regfile reads
system.cpu0.cc_regfile_writes                53059005                       # number of cc regfile writes
system.cpu0.misc_regfile_reads               22774024                       # number of misc regfile reads
system.cpu0.misc_regfile_writes                 15557                       # number of misc regfile writes
system.cpu0.dcache.tags.pwrStateResidencyTicks::UNDEFINED  87783654000                       # Cumulative time (in ticks) in various power states
system.cpu0.dcache.tags.replacements            15536                       # number of replacements
system.cpu0.dcache.tags.tagsinuse          225.234300                       # Cycle average of tags in use
system.cpu0.dcache.tags.total_refs           20123649                       # Total number of references to valid blocks.
system.cpu0.dcache.tags.sampled_refs            15782                       # Sample count of references to valid blocks.
system.cpu0.dcache.tags.avg_refs          1275.101318                       # Average number of references to valid blocks.
system.cpu0.dcache.tags.warmup_cycle      16466231500                       # Cycle when the warmup percentage was hit.
system.cpu0.dcache.tags.occ_blocks::cpu0.data   225.234300                       # Average occupied blocks per requestor
system.cpu0.dcache.tags.occ_percent::cpu0.data     0.879821                       # Average percentage of cache occupancy
system.cpu0.dcache.tags.occ_percent::total     0.879821                       # Average percentage of cache occupancy
system.cpu0.dcache.tags.occ_task_id_blocks::1024          246                       # Occupied blocks per task id
system.cpu0.dcache.tags.age_task_id_blocks_1024::0           28                       # Occupied blocks per task id
system.cpu0.dcache.tags.age_task_id_blocks_1024::1           54                       # Occupied blocks per task id
system.cpu0.dcache.tags.age_task_id_blocks_1024::2           71                       # Occupied blocks per task id
system.cpu0.dcache.tags.age_task_id_blocks_1024::3           74                       # Occupied blocks per task id
system.cpu0.dcache.tags.age_task_id_blocks_1024::4           19                       # Occupied blocks per task id
system.cpu0.dcache.tags.occ_task_id_percent::1024     0.960938                       # Percentage of cache occupancy per task id
system.cpu0.dcache.tags.tag_accesses         40340191                       # Number of tag accesses
system.cpu0.dcache.tags.data_accesses        40340191                       # Number of data accesses
system.cpu0.dcache.pwrStateResidencyTicks::UNDEFINED  87783654000                       # Cumulative time (in ticks) in various power states
system.cpu0.dcache.ReadReq_hits::cpu0.data     11623625                       # number of ReadReq hits
system.cpu0.dcache.ReadReq_hits::total       11623625                       # number of ReadReq hits
system.cpu0.dcache.WriteReq_hits::cpu0.data      8485364                       # number of WriteReq hits
system.cpu0.dcache.WriteReq_hits::total       8485364                       # number of WriteReq hits
system.cpu0.dcache.LoadLockedReq_hits::cpu0.data         6090                       # number of LoadLockedReq hits
system.cpu0.dcache.LoadLockedReq_hits::total         6090                       # number of LoadLockedReq hits
system.cpu0.dcache.StoreCondReq_hits::cpu0.data         4028                       # number of StoreCondReq hits
system.cpu0.dcache.StoreCondReq_hits::total         4028                       # number of StoreCondReq hits
system.cpu0.dcache.demand_hits::cpu0.data     20108989                       # number of demand (read+write) hits
system.cpu0.dcache.demand_hits::total        20108989                       # number of demand (read+write) hits
system.cpu0.dcache.overall_hits::cpu0.data     20108989                       # number of overall hits
system.cpu0.dcache.overall_hits::total       20108989                       # number of overall hits
system.cpu0.dcache.ReadReq_misses::cpu0.data        19070                       # number of ReadReq misses
system.cpu0.dcache.ReadReq_misses::total        19070                       # number of ReadReq misses
system.cpu0.dcache.WriteReq_misses::cpu0.data        18042                       # number of WriteReq misses
system.cpu0.dcache.WriteReq_misses::total        18042                       # number of WriteReq misses
system.cpu0.dcache.LoadLockedReq_misses::cpu0.data          526                       # number of LoadLockedReq misses
system.cpu0.dcache.LoadLockedReq_misses::total          526                       # number of LoadLockedReq misses
system.cpu0.dcache.StoreCondReq_misses::cpu0.data         1961                       # number of StoreCondReq misses
system.cpu0.dcache.StoreCondReq_misses::total         1961                       # number of StoreCondReq misses
system.cpu0.dcache.demand_misses::cpu0.data        37112                       # number of demand (read+write) misses
system.cpu0.dcache.demand_misses::total         37112                       # number of demand (read+write) misses
system.cpu0.dcache.overall_misses::cpu0.data        37112                       # number of overall misses
system.cpu0.dcache.overall_misses::total        37112                       # number of overall misses
system.cpu0.dcache.ReadReq_miss_latency::cpu0.data    373095000                       # number of ReadReq miss cycles
system.cpu0.dcache.ReadReq_miss_latency::total    373095000                       # number of ReadReq miss cycles
system.cpu0.dcache.WriteReq_miss_latency::cpu0.data    377861808                       # number of WriteReq miss cycles
system.cpu0.dcache.WriteReq_miss_latency::total    377861808                       # number of WriteReq miss cycles
system.cpu0.dcache.LoadLockedReq_miss_latency::cpu0.data      5002000                       # number of LoadLockedReq miss cycles
system.cpu0.dcache.LoadLockedReq_miss_latency::total      5002000                       # number of LoadLockedReq miss cycles
system.cpu0.dcache.StoreCondReq_miss_latency::cpu0.data     18817000                       # number of StoreCondReq miss cycles
system.cpu0.dcache.StoreCondReq_miss_latency::total     18817000                       # number of StoreCondReq miss cycles
system.cpu0.dcache.StoreCondFailReq_miss_latency::cpu0.data       525000                       # number of StoreCondFailReq miss cycles
system.cpu0.dcache.StoreCondFailReq_miss_latency::total       525000                       # number of StoreCondFailReq miss cycles
system.cpu0.dcache.demand_miss_latency::cpu0.data    750956808                       # number of demand (read+write) miss cycles
system.cpu0.dcache.demand_miss_latency::total    750956808                       # number of demand (read+write) miss cycles
system.cpu0.dcache.overall_miss_latency::cpu0.data    750956808                       # number of overall miss cycles
system.cpu0.dcache.overall_miss_latency::total    750956808                       # number of overall miss cycles
system.cpu0.dcache.ReadReq_accesses::cpu0.data     11642695                       # number of ReadReq accesses(hits+misses)
system.cpu0.dcache.ReadReq_accesses::total     11642695                       # number of ReadReq accesses(hits+misses)
system.cpu0.dcache.WriteReq_accesses::cpu0.data      8503406                       # number of WriteReq accesses(hits+misses)
system.cpu0.dcache.WriteReq_accesses::total      8503406                       # number of WriteReq accesses(hits+misses)
system.cpu0.dcache.LoadLockedReq_accesses::cpu0.data         6616                       # number of LoadLockedReq accesses(hits+misses)
system.cpu0.dcache.LoadLockedReq_accesses::total         6616                       # number of LoadLockedReq accesses(hits+misses)
system.cpu0.dcache.StoreCondReq_accesses::cpu0.data         5989                       # number of StoreCondReq accesses(hits+misses)
system.cpu0.dcache.StoreCondReq_accesses::total         5989                       # number of StoreCondReq accesses(hits+misses)
system.cpu0.dcache.demand_accesses::cpu0.data     20146101                       # number of demand (read+write) accesses
system.cpu0.dcache.demand_accesses::total     20146101                       # number of demand (read+write) accesses
system.cpu0.dcache.overall_accesses::cpu0.data     20146101                       # number of overall (read+write) accesses
system.cpu0.dcache.overall_accesses::total     20146101                       # number of overall (read+write) accesses
system.cpu0.dcache.ReadReq_miss_rate::cpu0.data     0.001638                       # miss rate for ReadReq accesses
system.cpu0.dcache.ReadReq_miss_rate::total     0.001638                       # miss rate for ReadReq accesses
system.cpu0.dcache.WriteReq_miss_rate::cpu0.data     0.002122                       # miss rate for WriteReq accesses
system.cpu0.dcache.WriteReq_miss_rate::total     0.002122                       # miss rate for WriteReq accesses
system.cpu0.dcache.LoadLockedReq_miss_rate::cpu0.data     0.079504                       # miss rate for LoadLockedReq accesses
system.cpu0.dcache.LoadLockedReq_miss_rate::total     0.079504                       # miss rate for LoadLockedReq accesses
system.cpu0.dcache.StoreCondReq_miss_rate::cpu0.data     0.327434                       # miss rate for StoreCondReq accesses
system.cpu0.dcache.StoreCondReq_miss_rate::total     0.327434                       # miss rate for StoreCondReq accesses
system.cpu0.dcache.demand_miss_rate::cpu0.data     0.001842                       # miss rate for demand accesses
system.cpu0.dcache.demand_miss_rate::total     0.001842                       # miss rate for demand accesses
system.cpu0.dcache.overall_miss_rate::cpu0.data     0.001842                       # miss rate for overall accesses
system.cpu0.dcache.overall_miss_rate::total     0.001842                       # miss rate for overall accesses
system.cpu0.dcache.ReadReq_avg_miss_latency::cpu0.data 19564.499213                       # average ReadReq miss latency
system.cpu0.dcache.ReadReq_avg_miss_latency::total 19564.499213                       # average ReadReq miss latency
system.cpu0.dcache.WriteReq_avg_miss_latency::cpu0.data 20943.454606                       # average WriteReq miss latency
system.cpu0.dcache.WriteReq_avg_miss_latency::total 20943.454606                       # average WriteReq miss latency
system.cpu0.dcache.LoadLockedReq_avg_miss_latency::cpu0.data  9509.505703                       # average LoadLockedReq miss latency
system.cpu0.dcache.LoadLockedReq_avg_miss_latency::total  9509.505703                       # average LoadLockedReq miss latency
system.cpu0.dcache.StoreCondReq_avg_miss_latency::cpu0.data  9595.614482                       # average StoreCondReq miss latency
system.cpu0.dcache.StoreCondReq_avg_miss_latency::total  9595.614482                       # average StoreCondReq miss latency
system.cpu0.dcache.StoreCondFailReq_avg_miss_latency::cpu0.data          inf                       # average StoreCondFailReq miss latency
system.cpu0.dcache.StoreCondFailReq_avg_miss_latency::total          inf                       # average StoreCondFailReq miss latency
system.cpu0.dcache.demand_avg_miss_latency::cpu0.data 20234.878422                       # average overall miss latency
system.cpu0.dcache.demand_avg_miss_latency::total 20234.878422                       # average overall miss latency
system.cpu0.dcache.overall_avg_miss_latency::cpu0.data 20234.878422                       # average overall miss latency
system.cpu0.dcache.overall_avg_miss_latency::total 20234.878422                       # average overall miss latency
system.cpu0.dcache.blocked_cycles::no_mshrs         4503                       # number of cycles access was blocked
system.cpu0.dcache.blocked_cycles::no_targets            0                       # number of cycles access was blocked
system.cpu0.dcache.blocked::no_mshrs              830                       # number of cycles access was blocked
system.cpu0.dcache.blocked::no_targets              0                       # number of cycles access was blocked
system.cpu0.dcache.avg_blocked_cycles::no_mshrs     5.425301                       # average number of cycles each access was blocked
system.cpu0.dcache.avg_blocked_cycles::no_targets          nan                       # average number of cycles each access was blocked
system.cpu0.dcache.writebacks::writebacks         8875                       # number of writebacks
system.cpu0.dcache.writebacks::total             8875                       # number of writebacks
system.cpu0.dcache.ReadReq_mshr_hits::cpu0.data         6065                       # number of ReadReq MSHR hits
system.cpu0.dcache.ReadReq_mshr_hits::total         6065                       # number of ReadReq MSHR hits
system.cpu0.dcache.WriteReq_mshr_hits::cpu0.data         6631                       # number of WriteReq MSHR hits
system.cpu0.dcache.WriteReq_mshr_hits::total         6631                       # number of WriteReq MSHR hits
system.cpu0.dcache.LoadLockedReq_mshr_hits::cpu0.data          122                       # number of LoadLockedReq MSHR hits
system.cpu0.dcache.LoadLockedReq_mshr_hits::total          122                       # number of LoadLockedReq MSHR hits
system.cpu0.dcache.demand_mshr_hits::cpu0.data        12696                       # number of demand (read+write) MSHR hits
system.cpu0.dcache.demand_mshr_hits::total        12696                       # number of demand (read+write) MSHR hits
system.cpu0.dcache.overall_mshr_hits::cpu0.data        12696                       # number of overall MSHR hits
system.cpu0.dcache.overall_mshr_hits::total        12696                       # number of overall MSHR hits
system.cpu0.dcache.ReadReq_mshr_misses::cpu0.data        13005                       # number of ReadReq MSHR misses
system.cpu0.dcache.ReadReq_mshr_misses::total        13005                       # number of ReadReq MSHR misses
system.cpu0.dcache.WriteReq_mshr_misses::cpu0.data        11411                       # number of WriteReq MSHR misses
system.cpu0.dcache.WriteReq_mshr_misses::total        11411                       # number of WriteReq MSHR misses
system.cpu0.dcache.LoadLockedReq_mshr_misses::cpu0.data          404                       # number of LoadLockedReq MSHR misses
system.cpu0.dcache.LoadLockedReq_mshr_misses::total          404                       # number of LoadLockedReq MSHR misses
system.cpu0.dcache.StoreCondReq_mshr_misses::cpu0.data         1961                       # number of StoreCondReq MSHR misses
system.cpu0.dcache.StoreCondReq_mshr_misses::total         1961                       # number of StoreCondReq MSHR misses
system.cpu0.dcache.demand_mshr_misses::cpu0.data        24416                       # number of demand (read+write) MSHR misses
system.cpu0.dcache.demand_mshr_misses::total        24416                       # number of demand (read+write) MSHR misses
system.cpu0.dcache.overall_mshr_misses::cpu0.data        24416                       # number of overall MSHR misses
system.cpu0.dcache.overall_mshr_misses::total        24416                       # number of overall MSHR misses
system.cpu0.dcache.ReadReq_mshr_miss_latency::cpu0.data    208778000                       # number of ReadReq MSHR miss cycles
system.cpu0.dcache.ReadReq_mshr_miss_latency::total    208778000                       # number of ReadReq MSHR miss cycles
system.cpu0.dcache.WriteReq_mshr_miss_latency::cpu0.data    186002883                       # number of WriteReq MSHR miss cycles
system.cpu0.dcache.WriteReq_mshr_miss_latency::total    186002883                       # number of WriteReq MSHR miss cycles
system.cpu0.dcache.LoadLockedReq_mshr_miss_latency::cpu0.data      2670000                       # number of LoadLockedReq MSHR miss cycles
system.cpu0.dcache.LoadLockedReq_mshr_miss_latency::total      2670000                       # number of LoadLockedReq MSHR miss cycles
system.cpu0.dcache.StoreCondReq_mshr_miss_latency::cpu0.data     14977500                       # number of StoreCondReq MSHR miss cycles
system.cpu0.dcache.StoreCondReq_mshr_miss_latency::total     14977500                       # number of StoreCondReq MSHR miss cycles
system.cpu0.dcache.StoreCondFailReq_mshr_miss_latency::cpu0.data       429500                       # number of StoreCondFailReq MSHR miss cycles
system.cpu0.dcache.StoreCondFailReq_mshr_miss_latency::total       429500                       # number of StoreCondFailReq MSHR miss cycles
system.cpu0.dcache.demand_mshr_miss_latency::cpu0.data    394780883                       # number of demand (read+write) MSHR miss cycles
system.cpu0.dcache.demand_mshr_miss_latency::total    394780883                       # number of demand (read+write) MSHR miss cycles
system.cpu0.dcache.overall_mshr_miss_latency::cpu0.data    394780883                       # number of overall MSHR miss cycles
[...]
system.l2.overall_avg_mshr_miss_latency::cpu3.inst 52427.953890                       # average overall mshr miss latency
system.l2.overall_avg_mshr_miss_latency::cpu3.data 51743.554328                       # average overall mshr miss latency
system.l2.overall_avg_mshr_miss_latency::cpu4.inst 52363.471481                       # average overall mshr miss latency
system.l2.overall_avg_mshr_miss_latency::cpu4.data 51989.331717                       # average overall mshr miss latency
system.l2.overall_avg_mshr_miss_latency::cpu5.inst 52420.313281                       # average overall mshr miss latency
system.l2.overall_avg_mshr_miss_latency::cpu5.data 51796.127306                       # average overall mshr miss latency
system.l2.overall_avg_mshr_miss_latency::cpu6.inst 52384.703957                       # average overall mshr miss latency
system.l2.overall_avg_mshr_miss_latency::cpu6.data 51763.243848                       # average overall mshr miss latency
system.l2.overall_avg_mshr_miss_latency::cpu7.inst 51681.485589                       # average overall mshr miss latency
system.l2.overall_avg_mshr_miss_latency::cpu7.data 51979.583885                       # average overall mshr miss latency
system.l2.overall_avg_mshr_miss_latency::total 51986.207692                       # average overall mshr miss latency
system.membus.snoop_filter.tot_requests         53242                       # Total number of requests made to the snoop filter.
system.membus.snoop_filter.hit_single_requests        36857                       # Number of requests hitting in the snoop filter with a single holder of the requested data.
system.membus.snoop_filter.hit_multi_requests            0                       # Number of requests hitting in the snoop filter with multiple (>1) holders of the requested data.
system.membus.snoop_filter.tot_snoops               0                       # Total number of snoops made to the snoop filter.
system.membus.snoop_filter.hit_single_snoops            0                       # Number of snoops hitting in the snoop filter with a single holder of the requested data.
system.membus.snoop_filter.hit_multi_snoops            0                       # Number of snoops hitting in the snoop filter with multiple (>1) holders of the requested data.
system.membus.pwrStateResidencyTicks::UNDEFINED  87783654000                       # Cumulative time (in ticks) in various power states
system.membus.trans_dist::ReadResp              17755                       # Transaction distribution
system.membus.trans_dist::WritebackDirty         5386                       # Transaction distribution
system.membus.trans_dist::CleanEvict             7705                       # Transaction distribution
system.membus.trans_dist::UpgradeReq             5700                       # Transaction distribution
system.membus.trans_dist::SCUpgradeReq           8949                       # Transaction distribution
system.membus.trans_dist::ReadExReq              5815                       # Transaction distribution
system.membus.trans_dist::ReadExResp             5690                       # Transaction distribution
system.membus.trans_dist::ReadSharedReq         17755                       # Transaction distribution
system.membus.pkt_count_system.l2.mem_side::system.physmem.port        74755                       # Packet count per connected master and slave (bytes)
system.membus.pkt_count::total                  74755                       # Packet count per connected master and slave (bytes)
system.membus.pkt_size_system.l2.mem_side::system.physmem.port      1845184                       # Cumulative packet size per connected master and slave (bytes)
system.membus.pkt_size::total                 1845184                       # Cumulative packet size per connected master and slave (bytes)
system.membus.snoops                            13719                       # Total snoops (count)
system.membus.snoopTraffic                          0                       # Total snoop traffic (bytes)
system.membus.snoop_fanout::samples             39894                       # Request fanout histogram
system.membus.snoop_fanout::mean                    0                       # Request fanout histogram
system.membus.snoop_fanout::stdev                   0                       # Request fanout histogram
system.membus.snoop_fanout::underflows              0      0.00%      0.00% # Request fanout histogram
system.membus.snoop_fanout::0                   39894    100.00%    100.00% # Request fanout histogram
system.membus.snoop_fanout::1                       0      0.00%    100.00% # Request fanout histogram
system.membus.snoop_fanout::overflows               0      0.00%    100.00% # Request fanout histogram
system.membus.snoop_fanout::min_value               0                       # Request fanout histogram
system.membus.snoop_fanout::max_value               0                       # Request fanout histogram
system.membus.snoop_fanout::total               39894                       # Request fanout histogram
system.membus.reqLayer0.occupancy            75185833                       # Layer occupancy (ticks)
system.membus.reqLayer0.utilization               0.1                       # Layer utilization (%)
system.membus.respLayer1.occupancy          117225000                       # Layer occupancy (ticks)
system.membus.respLayer1.utilization              0.1                       # Layer utilization (%)
system.tol2bus.snoop_filter.tot_requests      2058370                       # Total number of requests made to the snoop filter.
system.tol2bus.snoop_filter.hit_single_requests       575103                       # Number of requests hitting in the snoop filter with a single holder of the requested data.
system.tol2bus.snoop_filter.hit_multi_requests      1067838                       # Number of requests hitting in the snoop filter with multiple (>1) holders of the requested data.
system.tol2bus.snoop_filter.tot_snoops          19345                       # Total number of snoops made to the snoop filter.
system.tol2bus.snoop_filter.hit_single_snoops        10189                       # Number of snoops hitting in the snoop filter with a single holder of the requested data.
system.tol2bus.snoop_filter.hit_multi_snoops         9156                       # Number of snoops hitting in the snoop filter with multiple (>1) holders of the requested data.
system.tol2bus.pwrStateResidencyTicks::UNDEFINED  87783654000                       # Cumulative time (in ticks) in various power states
system.tol2bus.trans_dist::ReadResp           1013873                       # Transaction distribution
system.tol2bus.trans_dist::ReadRespWithInvalidate           19                       # Transaction distribution
system.tol2bus.trans_dist::WritebackDirty        30934                       # Transaction distribution
system.tol2bus.trans_dist::WritebackClean       956542                       # Transaction distribution
system.tol2bus.trans_dist::CleanEvict           46337                       # Transaction distribution
system.tol2bus.trans_dist::UpgradeReq            6813                       # Transaction distribution
system.tol2bus.trans_dist::SCUpgradeReq          9432                       # Transaction distribution
system.tol2bus.trans_dist::UpgradeResp          16245                       # Transaction distribution
system.tol2bus.trans_dist::SCUpgradeFailReq          290                       # Transaction distribution
system.tol2bus.trans_dist::UpgradeFailResp          290                       # Transaction distribution
system.tol2bus.trans_dist::ReadExReq            25044                       # Transaction distribution
system.tol2bus.trans_dist::ReadExResp           25044                       # Transaction distribution
system.tol2bus.trans_dist::ReadCleanReq        958614                       # Transaction distribution
system.tol2bus.trans_dist::ReadSharedReq        55278                       # Transaction distribution
system.tol2bus.pkt_count_system.cpu0.icache.mem_side::system.l2.cpu_side      1024497                       # Packet count per connected master and slave (bytes)
system.tol2bus.pkt_count_system.cpu0.dcache.mem_side::system.l2.cpu_side        58913                       # Packet count per connected master and slave (bytes)
system.tol2bus.pkt_count_system.cpu1.icache.mem_side::system.l2.cpu_side       280681                       # Packet count per connected master and slave (bytes)
system.tol2bus.pkt_count_system.cpu1.dcache.mem_side::system.l2.cpu_side        27636                       # Packet count per connected master and slave (bytes)
system.tol2bus.pkt_count_system.cpu2.icache.mem_side::system.l2.cpu_side       277275                       # Packet count per connected master and slave (bytes)
system.tol2bus.pkt_count_system.cpu2.dcache.mem_side::system.l2.cpu_side        14930                       # Packet count per connected master and slave (bytes)
system.tol2bus.pkt_count_system.cpu3.icache.mem_side::system.l2.cpu_side       277115                       # Packet count per connected master and slave (bytes)
system.tol2bus.pkt_count_system.cpu3.dcache.mem_side::system.l2.cpu_side        15521                       # Packet count per connected master and slave (bytes)
system.tol2bus.pkt_count_system.cpu4.icache.mem_side::system.l2.cpu_side       271565                       # Packet count per connected master and slave (bytes)
system.tol2bus.pkt_count_system.cpu4.dcache.mem_side::system.l2.cpu_side        20362                       # Packet count per connected master and slave (bytes)
system.tol2bus.pkt_count_system.cpu5.icache.mem_side::system.l2.cpu_side       281596                       # Packet count per connected master and slave (bytes)
system.tol2bus.pkt_count_system.cpu5.dcache.mem_side::system.l2.cpu_side        22563                       # Packet count per connected master and slave (bytes)
system.tol2bus.pkt_count_system.cpu6.icache.mem_side::system.l2.cpu_side       277631                       # Packet count per connected master and slave (bytes)
system.tol2bus.pkt_count_system.cpu6.dcache.mem_side::system.l2.cpu_side        21303                       # Packet count per connected master and slave (bytes)
system.tol2bus.pkt_count_system.cpu7.icache.mem_side::system.l2.cpu_side       183383                       # Packet count per connected master and slave (bytes)
system.tol2bus.pkt_count_system.cpu7.dcache.mem_side::system.l2.cpu_side        12167                       # Packet count per connected master and slave (bytes)
system.tol2bus.pkt_count::total               3067138                       # Packet count per connected master and slave (bytes)
system.tol2bus.pkt_size_system.cpu0.icache.mem_side::system.l2.cpu_side     43706240                       # Cumulative packet size per connected master and slave (bytes)
system.tol2bus.pkt_size_system.cpu0.dcache.mem_side::system.l2.cpu_side      1582016                       # Cumulative packet size per connected master and slave (bytes)
system.tol2bus.pkt_size_system.cpu1.icache.mem_side::system.l2.cpu_side     11969664                       # Cumulative packet size per connected master and slave (bytes)
system.tol2bus.pkt_size_system.cpu1.dcache.mem_side::system.l2.cpu_side       539072                       # Cumulative packet size per connected master and slave (bytes)
system.tol2bus.pkt_size_system.cpu2.icache.mem_side::system.l2.cpu_side     11824896                       # Cumulative packet size per connected master and slave (bytes)
system.tol2bus.pkt_size_system.cpu2.dcache.mem_side::system.l2.cpu_side       404288                       # Cumulative packet size per connected master and slave (bytes)
system.tol2bus.pkt_size_system.cpu3.icache.mem_side::system.l2.cpu_side     11818112                       # Cumulative packet size per connected master and slave (bytes)
system.tol2bus.pkt_size_system.cpu3.dcache.mem_side::system.l2.cpu_side       408960                       # Cumulative packet size per connected master and slave (bytes)
system.tol2bus.pkt_size_system.cpu4.icache.mem_side::system.l2.cpu_side     11581312                       # Cumulative packet size per connected master and slave (bytes)
system.tol2bus.pkt_size_system.cpu4.dcache.mem_side::system.l2.cpu_side       583616                       # Cumulative packet size per connected master and slave (bytes)
system.tol2bus.pkt_size_system.cpu5.icache.mem_side::system.l2.cpu_side     12009216                       # Cumulative packet size per connected master and slave (bytes)
system.tol2bus.pkt_size_system.cpu5.dcache.mem_side::system.l2.cpu_side       467904                       # Cumulative packet size per connected master and slave (bytes)
system.tol2bus.pkt_size_system.cpu6.icache.mem_side::system.l2.cpu_side     11839936                       # Cumulative packet size per connected master and slave (bytes)
system.tol2bus.pkt_size_system.cpu6.dcache.mem_side::system.l2.cpu_side       429056                       # Cumulative packet size per connected master and slave (bytes)
system.tol2bus.pkt_size_system.cpu7.icache.mem_side::system.l2.cpu_side      7818880                       # Cumulative packet size per connected master and slave (bytes)
system.tol2bus.pkt_size_system.cpu7.dcache.mem_side::system.l2.cpu_side       262272                       # Cumulative packet size per connected master and slave (bytes)
system.tol2bus.pkt_size::total              127245440                       # Cumulative packet size per connected master and slave (bytes)
system.tol2bus.snoops                           77617                       # Total snoops (count)
system.tol2bus.snoopTraffic                   2463488                       # Total snoop traffic (bytes)
system.tol2bus.snoop_fanout::samples          1086391                       # Request fanout histogram
system.tol2bus.snoop_fanout::mean            1.979776                       # Request fanout histogram
system.tol2bus.snoop_fanout::stdev           2.451562                       # Request fanout histogram
system.tol2bus.snoop_fanout::underflows             0      0.00%      0.00% # Request fanout histogram
system.tol2bus.snoop_fanout::0                 427113     39.31%     39.31% # Request fanout histogram
system.tol2bus.snoop_fanout::1                 186013     17.12%     56.44% # Request fanout histogram
system.tol2bus.snoop_fanout::2                 135533     12.48%     68.91% # Request fanout histogram
system.tol2bus.snoop_fanout::3                 110876     10.21%     79.12% # Request fanout histogram
system.tol2bus.snoop_fanout::4                  51602      4.75%     83.87% # Request fanout histogram
system.tol2bus.snoop_fanout::5                  52485      4.83%     88.70% # Request fanout histogram
system.tol2bus.snoop_fanout::6                  52533      4.84%     93.53% # Request fanout histogram
system.tol2bus.snoop_fanout::7                  44863      4.13%     97.66% # Request fanout histogram
system.tol2bus.snoop_fanout::8                   5491      0.51%     98.17% # Request fanout histogram
system.tol2bus.snoop_fanout::9                   5557      0.51%     98.68% # Request fanout histogram
system.tol2bus.snoop_fanout::10                  4267      0.39%     99.07% # Request fanout histogram
system.tol2bus.snoop_fanout::11                  2667      0.25%     99.32% # Request fanout histogram
system.tol2bus.snoop_fanout::12                  2699      0.25%     99.57% # Request fanout histogram
system.tol2bus.snoop_fanout::13                  1872      0.17%     99.74% # Request fanout histogram
system.tol2bus.snoop_fanout::14                  1953      0.18%     99.92% # Request fanout histogram
system.tol2bus.snoop_fanout::15                   854      0.08%    100.00% # Request fanout histogram
system.tol2bus.snoop_fanout::16                    13      0.00%    100.00% # Request fanout histogram
system.tol2bus.snoop_fanout::overflows              0      0.00%    100.00% # Request fanout histogram
system.tol2bus.snoop_fanout::min_value              0                       # Request fanout histogram
system.tol2bus.snoop_fanout::max_value             16                       # Request fanout histogram
system.tol2bus.snoop_fanout::total            1086391                       # Request fanout histogram
system.tol2bus.reqLayer0.occupancy         2011324401                       # Layer occupancy (ticks)
system.tol2bus.reqLayer0.utilization              2.3                       # Layer utilization (%)
system.tol2bus.respLayer0.occupancy         512660843                       # Layer occupancy (ticks)
system.tol2bus.respLayer0.utilization             0.6                       # Layer utilization (%)
system.tol2bus.respLayer1.occupancy          36265797                       # Layer occupancy (ticks)
system.tol2bus.respLayer1.utilization             0.0                       # Layer utilization (%)
system.tol2bus.respLayer4.occupancy         140784241                       # Layer occupancy (ticks)
system.tol2bus.respLayer4.utilization             0.2                       # Layer utilization (%)
system.tol2bus.respLayer5.occupancy          20500739                       # Layer occupancy (ticks)
system.tol2bus.respLayer5.utilization             0.0                       # Layer utilization (%)
system.tol2bus.respLayer8.occupancy         139127128                       # Layer occupancy (ticks)
system.tol2bus.respLayer8.utilization             0.2                       # Layer utilization (%)
system.tol2bus.respLayer9.occupancy           8935254                       # Layer occupancy (ticks)
system.tol2bus.respLayer9.utilization             0.0                       # Layer utilization (%)
system.tol2bus.respLayer12.occupancy        138977770                       # Layer occupancy (ticks)
system.tol2bus.respLayer12.utilization            0.2                       # Layer utilization (%)
system.tol2bus.respLayer13.occupancy          9600290                       # Layer occupancy (ticks)
system.tol2bus.respLayer13.utilization            0.0                       # Layer utilization (%)
system.tol2bus.respLayer16.occupancy        136211346                       # Layer occupancy (ticks)
system.tol2bus.respLayer16.utilization            0.2                       # Layer utilization (%)
system.tol2bus.respLayer17.occupancy         12706110                       # Layer occupancy (ticks)
system.tol2bus.respLayer17.utilization            0.0                       # Layer utilization (%)
system.tol2bus.respLayer20.occupancy        141307693                       # Layer occupancy (ticks)
system.tol2bus.respLayer20.utilization            0.2                       # Layer utilization (%)
system.tol2bus.respLayer21.occupancy         16444721                       # Layer occupancy (ticks)
system.tol2bus.respLayer21.utilization            0.0                       # Layer utilization (%)
system.tol2bus.respLayer24.occupancy        139281795                       # Layer occupancy (ticks)
system.tol2bus.respLayer24.utilization            0.2                       # Layer utilization (%)
system.tol2bus.respLayer25.occupancy         15914686                       # Layer occupancy (ticks)
system.tol2bus.respLayer25.utilization            0.0                       # Layer utilization (%)
system.tol2bus.respLayer28.occupancy         92101388                       # Layer occupancy (ticks)
system.tol2bus.respLayer28.utilization            0.1                       # Layer utilization (%)
system.tol2bus.respLayer29.occupancy          9569297                       # Layer occupancy (ticks)
system.tol2bus.respLayer29.utilization            0.0                       # Layer utilization (%)

---------- End Simulation Statistics   ----------
