
---------- Begin Simulation Statistics ----------
sim_seconds                                  0.087537                       # Number of seconds simulated
sim_ticks                                 87537176000                       # Number of ticks simulated
final_tick                                87537176000                       # Number of ticks from beginning of simulation (restored from checkpoints and never reset)
sim_freq                                 1000000000000                       # Frequency of simulated ticks
host_inst_rate                                 252440                       # Simulator instruction rate (inst/s)
host_op_rate                                   277215                       # Simulator op (including micro ops) rate (op/s)
host_tick_rate                               28554769                       # Simulator tick rate (ticks/s)
host_mem_usage                                 725648                       # Number of bytes of host memory used
host_seconds                                  3065.59                       # Real time elapsed on the host
sim_insts                                   773877172                       # Number of instructions simulated
sim_ops                                     849828475                       # Number of ops (including micro ops) simulated
system.voltage_domain.voltage                       1                       # Voltage in Volts
system.clk_domain.clock                          1000                       # Clock period in ticks
system.physmem.pwrStateResidencyTicks::UNDEFINED  87537176000                       # Cumulative time (in ticks) in various power states
system.physmem.bytes_read::cpu0.inst            72640                       # Number of bytes read from this memory
system.physmem.bytes_read::cpu0.data            79424                       # Number of bytes read from this memory
system.physmem.bytes_read::cpu1.inst             2048                       # Number of bytes read from this memory
system.physmem.bytes_read::cpu1.data            44736                       # Number of bytes read from this memory
system.physmem.bytes_read::cpu2.inst              704                       # Number of bytes read from this memory
system.physmem.bytes_read::cpu2.data            36096                       # Number of bytes read from this memory
system.physmem.bytes_read::cpu3.inst             1344                       # Number of bytes read from this memory
system.physmem.bytes_read::cpu3.data            39168                       # Number of bytes read from this memory
system.physmem.bytes_read::cpu4.inst             4672                       # Number of bytes read from this memory
system.physmem.bytes_read::cpu4.data            46144                       # Number of bytes read from this memory
system.physmem.bytes_read::cpu5.inst             1024                       # Number of bytes read from this memory
system.physmem.bytes_read::cpu5.data            25600                       # Number of bytes read from this memory
system.physmem.bytes_read::cpu6.inst             2432                       # Number of bytes read from this memory
system.physmem.bytes_read::cpu6.data            40128                       # Number of bytes read from this memory
system.physmem.bytes_read::cpu7.inst            55808                       # Number of bytes read from this memory
system.physmem.bytes_read::cpu7.data            35136                       # Number of bytes read from this memory
system.physmem.bytes_read::total               487104                       # Number of bytes read from this memory
system.physmem.bytes_inst_read::cpu0.inst        72640                       # Number of instructions bytes read from this memory
system.physmem.bytes_inst_read::cpu1.inst         2048                       # Number of instructions bytes read from this memory
system.physmem.bytes_inst_read::cpu2.inst          704                       # Number of instructions bytes read from this memory
system.physmem.bytes_inst_read::cpu3.inst         1344                       # Number of instructions bytes read from this memory
system.physmem.bytes_inst_read::cpu4.inst         4672                       # Number of instructions bytes read from this memory
system.physmem.bytes_inst_read::cpu5.inst         1024                       # Number of instructions bytes read from this memory
system.physmem.bytes_inst_read::cpu6.inst         2432                       # Number of instructions bytes read from this memory
system.physmem.bytes_inst_read::cpu7.inst        55808                       # Number of instructions bytes read from this memory
system.physmem.bytes_inst_read::total          140672                       # Number of instructions bytes read from this memory
system.physmem.bytes_written::writebacks       120704                       # Number of bytes written to this memory
system.physmem.bytes_written::total            120704                       # Number of bytes written to this memory
system.physmem.num_reads::cpu0.inst              1135                       # Number of read requests responded to by this memory
system.physmem.num_reads::cpu0.data              1241                       # Number of read requests responded to by this memory
system.physmem.num_reads::cpu1.inst                32                       # Number of read requests responded to by this memory
system.physmem.num_reads::cpu1.data               699                       # Number of read requests responded to by this memory
system.physmem.num_reads::cpu2.inst                11                       # Number of read requests responded to by this memory
system.physmem.num_reads::cpu2.data               564                       # Number of read requests responded to by this memory
system.physmem.num_reads::cpu3.inst                21                       # Number of read requests responded to by this memory
system.physmem.num_reads::cpu3.data               612                       # Number of read requests responded to by this memory
system.physmem.num_reads::cpu4.inst                73                       # Number of read requests responded to by this memory
system.physmem.num_reads::cpu4.data               721                       # Number of read requests responded to by this memory
system.physmem.num_reads::cpu5.inst                16                       # Number of read requests responded to by this memory
system.physmem.num_reads::cpu5.data               400                       # Number of read requests responded to by this memory
system.physmem.num_reads::cpu6.inst                38                       # Number of read requests responded to by this memory
system.physmem.num_reads::cpu6.data               627                       # Number of read requests responded to by this memory
system.physmem.num_reads::cpu7.inst               872                       # Number of read requests responded to by this memory
system.physmem.num_reads::cpu7.data               549                       # Number of read requests responded to by this memory
system.physmem.num_reads::total                  7611                       # Number of read requests responded to by this memory
system.physmem.num_writes::writebacks            1886                       # Number of write requests responded to by this memory
system.physmem.num_writes::total                 1886                       # Number of write requests responded to by this memory
system.physmem.bw_read::cpu0.inst              829819                       # Total read bandwidth from this memory (bytes/s)
system.physmem.bw_read::cpu0.data              907317                       # Total read bandwidth from this memory (bytes/s)
system.physmem.bw_read::cpu1.inst               23396                       # Total read bandwidth from this memory (bytes/s)
system.physmem.bw_read::cpu1.data              511051                       # Total read bandwidth from this memory (bytes/s)
system.physmem.bw_read::cpu2.inst                8042                       # Total read bandwidth from this memory (bytes/s)
system.physmem.bw_read::cpu2.data              412351                       # Total read bandwidth from this memory (bytes/s)
system.physmem.bw_read::cpu3.inst               15353                       # Total read bandwidth from this memory (bytes/s)
system.physmem.bw_read::cpu3.data              447444                       # Total read bandwidth from this memory (bytes/s)
system.physmem.bw_read::cpu4.inst               53372                       # Total read bandwidth from this memory (bytes/s)
system.physmem.bw_read::cpu4.data              527136                       # Total read bandwidth from this memory (bytes/s)
system.physmem.bw_read::cpu5.inst               11698                       # Total read bandwidth from this memory (bytes/s)
system.physmem.bw_read::cpu5.data              292447                       # Total read bandwidth from this memory (bytes/s)
system.physmem.bw_read::cpu6.inst               27782                       # Total read bandwidth from this memory (bytes/s)
system.physmem.bw_read::cpu6.data              458411                       # Total read bandwidth from this memory (bytes/s)
system.physmem.bw_read::cpu7.inst              637535                       # Total read bandwidth from this memory (bytes/s)
system.physmem.bw_read::cpu7.data              401384                       # Total read bandwidth from this memory (bytes/s)
system.physmem.bw_read::total                 5564539                       # Total read bandwidth from this memory (bytes/s)
system.physmem.bw_inst_read::cpu0.inst         829819                       # Instruction read bandwidth from this memory (bytes/s)
system.physmem.bw_inst_read::cpu1.inst          23396                       # Instruction read bandwidth from this memory (bytes/s)
system.physmem.bw_inst_read::cpu2.inst           8042                       # Instruction read bandwidth from this memory (bytes/s)
system.physmem.bw_inst_read::cpu3.inst          15353                       # Instruction read bandwidth from this memory (bytes/s)
system.physmem.bw_inst_read::cpu4.inst          53372                       # Instruction read bandwidth from this memory (bytes/s)
system.physmem.bw_inst_read::cpu5.inst          11698                       # Instruction read bandwidth from this memory (bytes/s)
system.physmem.bw_inst_read::cpu6.inst          27782                       # Instruction read bandwidth from this memory (bytes/s)
system.physmem.bw_inst_read::cpu7.inst         637535                       # Instruction read bandwidth from this memory (bytes/s)
system.physmem.bw_inst_read::total            1606997                       # Instruction read bandwidth from this memory (bytes/s)
system.physmem.bw_write::writebacks           1378888                       # Write bandwidth from this memory (bytes/s)
system.physmem.bw_write::total                1378888                       # Write bandwidth from this memory (bytes/s)
system.physmem.bw_total::writebacks           1378888                       # Total bandwidth to/from this memory (bytes/s)
system.physmem.bw_total::cpu0.inst             829819                       # Total bandwidth to/from this memory (bytes/s)
system.physmem.bw_total::cpu0.data             907317                       # Total bandwidth to/from this memory (bytes/s)
system.physmem.bw_total::cpu1.inst              23396                       # Total bandwidth to/from this memory (bytes/s)
system.physmem.bw_total::cpu1.data             511051                       # Total bandwidth to/from this memory (bytes/s)
system.physmem.bw_total::cpu2.inst               8042                       # Total bandwidth to/from this memory (bytes/s)
system.physmem.bw_total::cpu2.data             412351                       # Total bandwidth to/from this memory (bytes/s)
system.physmem.bw_total::cpu3.inst              15353                       # Total bandwidth to/from this memory (bytes/s)
system.physmem.bw_total::cpu3.data             447444                       # Total bandwidth to/from this memory (bytes/s)
system.physmem.bw_total::cpu4.inst              53372                       # Total bandwidth to/from this memory (bytes/s)
system.physmem.bw_total::cpu4.data             527136                       # Total bandwidth to/from this memory (bytes/s)
system.physmem.bw_total::cpu5.inst              11698                       # Total bandwidth to/from this memory (bytes/s)
system.physmem.bw_total::cpu5.data             292447                       # Total bandwidth to/from this memory (bytes/s)
system.physmem.bw_total::cpu6.inst              27782                       # Total bandwidth to/from this memory (bytes/s)
system.physmem.bw_total::cpu6.data             458411                       # Total bandwidth to/from this memory (bytes/s)
system.physmem.bw_total::cpu7.inst             637535                       # Total bandwidth to/from this memory (bytes/s)
system.physmem.bw_total::cpu7.data             401384                       # Total bandwidth to/from this memory (bytes/s)
system.physmem.bw_total::total                6943427                       # Total bandwidth to/from this memory (bytes/s)
system.pwrStateResidencyTicks::UNDEFINED  87537176000                       # Cumulative time (in ticks) in various power states
system.cpu0.branchPred.lookups               18494200                       # Number of BP lookups
system.cpu0.branchPred.condPredicted         11336086                       # Number of conditional branches predicted
system.cpu0.branchPred.condIncorrect           433880                       # Number of conditional branches incorrect
system.cpu0.branchPred.BTBLookups            10048528                       # Number of BTB lookups
system.cpu0.branchPred.BTBHits                8713334                       # Number of BTB hits
system.cpu0.branchPred.BTBCorrect                   0                       # Number of correct BTB predictions (this stat may not work properly.
system.cpu0.branchPred.BTBHitPct            86.712541                       # BTB Hit Percentage
system.cpu0.branchPred.usedRAS                2303298                       # Number of times the RAS was used to get a target.
system.cpu0.branchPred.RASInCorrect             40138                       # Number of incorrect RAS predictions.
system.cpu0.branchPred.indirectLookups         567072                       # Number of indirect predictor lookups.
system.cpu0.branchPred.indirectHits            562780                       # Number of indirect target hits.
system.cpu0.branchPred.indirectMisses            4292                       # Number of indirect misses.
system.cpu0.branchPredindirectMispredicted         9422                       # Number of mispredicted indirect branches.
system.cpu0.dstage2_mmu.stage2_tlb.walker.pwrStateResidencyTicks::UNDEFINED  87537176000                       # Cumulative time (in ticks) in various power states
system.cpu0.dstage2_mmu.stage2_tlb.walker.walks            0                       # Table walker walks requested
system.cpu0.dstage2_mmu.stage2_tlb.walker.walkRequestOrigin_Requested::Data            0                       # Table walker requests started/completed, data/inst
system.cpu0.dstage2_mmu.stage2_tlb.walker.walkRequestOrigin_Requested::Inst            0                       # Table walker requests started/completed, data/inst
system.cpu0.dstage2_mmu.stage2_tlb.walker.walkRequestOrigin_Requested::total            0                       # Table walker requests started/completed, data/inst
system.cpu0.dstage2_mmu.stage2_tlb.walker.walkRequestOrigin_Completed::Data            0                       # Table walker requests started/completed, data/inst
system.cpu0.dstage2_mmu.stage2_tlb.walker.walkRequestOrigin_Completed::Inst            0                       # Table walker requests started/completed, data/inst
system.cpu0.dstage2_mmu.stage2_tlb.walker.walkRequestOrigin_Completed::total            0                       # Table walker requests started/completed, data/inst
system.cpu0.dstage2_mmu.stage2_tlb.walker.walkRequestOrigin::total            0                       # Table walker requests started/completed, data/inst
system.cpu0.dstage2_mmu.stage2_tlb.inst_hits            0                       # ITB inst hits
system.cpu0.dstage2_mmu.stage2_tlb.inst_misses            0                       # ITB inst misses
system.cpu0.dstage2_mmu.stage2_tlb.read_hits            0                       # DTB read hits
system.cpu0.dstage2_mmu.stage2_tlb.read_misses            0                       # DTB read misses
system.cpu0.dstage2_mmu.stage2_tlb.write_hits            0                       # DTB write hits
system.cpu0.dstage2_mmu.stage2_tlb.write_misses            0                       # DTB write misses
system.cpu0.dstage2_mmu.stage2_tlb.flush_tlb            0                       # Number of times complete TLB was flushed
system.cpu0.dstage2_mmu.stage2_tlb.flush_tlb_mva            0                       # Number of times TLB was flushed by MVA
system.cpu0.dstage2_mmu.stage2_tlb.flush_tlb_mva_asid            0                       # Number of times TLB was flushed by MVA & ASID
system.cpu0.dstage2_mmu.stage2_tlb.flush_tlb_asid            0                       # Number of times TLB was flushed by ASID
system.cpu0.dstage2_mmu.stage2_tlb.flush_entries            0                       # Number of entries that have been flushed from TLB
system.cpu0.dstage2_mmu.stage2_tlb.align_faults            0                       # Number of TLB faults due to alignment restrictions
system.cpu0.dstage2_mmu.stage2_tlb.prefetch_faults            0                       # Number of TLB faults due to prefetch
system.cpu0.dstage2_mmu.stage2_tlb.domain_faults            0                       # Number of TLB faults due to domain restrictions
system.cpu0.dstage2_mmu.stage2_tlb.perms_faults            0                       # Number of TLB faults due to permissions restrictions
system.cpu0.dstage2_mmu.stage2_tlb.read_accesses            0                       # DTB read accesses
system.cpu0.dstage2_mmu.stage2_tlb.write_accesses            0                       # DTB write accesses
system.cpu0.dstage2_mmu.stage2_tlb.inst_accesses            0                       # ITB inst accesses
system.cpu0.dstage2_mmu.stage2_tlb.hits             0                       # DTB hits
system.cpu0.dstage2_mmu.stage2_tlb.misses            0                       # DTB misses
system.cpu0.dstage2_mmu.stage2_tlb.accesses            0                       # DTB accesses
system.cpu0.dtb.walker.pwrStateResidencyTicks::UNDEFINED  87537176000                       # Cumulative time (in ticks) in various power states
system.cpu0.dtb.walker.walks                        0                       # Table walker walks requested
system.cpu0.dtb.walker.walkRequestOrigin_Requested::Data            0                       # Table walker requests started/completed, data/inst
system.cpu0.dtb.walker.walkRequestOrigin_Requested::Inst            0                       # Table walker requests started/completed, data/inst
system.cpu0.dtb.walker.walkRequestOrigin_Requested::total            0                       # Table walker requests started/completed, data/inst
system.cpu0.dtb.walker.walkRequestOrigin_Completed::Data            0                       # Table walker requests started/completed, data/inst
system.cpu0.dtb.walker.walkRequestOrigin_Completed::Inst            0                       # Table walker requests started/completed, data/inst
system.cpu0.dtb.walker.walkRequestOrigin_Completed::total            0                       # Table walker requests started/completed, data/inst
system.cpu0.dtb.walker.walkRequestOrigin::total            0                       # Table walker requests started/completed, data/inst
system.cpu0.dtb.inst_hits                           0                       # ITB inst hits
system.cpu0.dtb.inst_misses                         0                       # ITB inst misses
system.cpu0.dtb.read_hits                           0                       # DTB read hits
system.cpu0.dtb.read_misses                         0                       # DTB read misses
system.cpu0.dtb.write_hits                          0                       # DTB write hits
system.cpu0.dtb.write_misses                        0                       # DTB write misses
system.cpu0.dtb.flush_tlb                           0                       # Number of times complete TLB was flushed
system.cpu0.dtb.flush_tlb_mva                       0                       # Number of times TLB was flushed by MVA
system.cpu0.dtb.flush_tlb_mva_asid                  0                       # Number of times TLB was flushed by MVA & ASID
system.cpu0.dtb.flush_tlb_asid                      0                       # Number of times TLB was flushed by ASID
system.cpu0.dtb.flush_entries                       0                       # Number of entries that have been flushed from TLB
system.cpu0.dtb.align_faults                        0                       # Number of TLB faults due to alignment restrictions
system.cpu0.dtb.prefetch_faults                     0                       # Number of TLB faults due to prefetch
system.cpu0.dtb.domain_faults                       0                       # Number of TLB faults due to domain restrictions
system.cpu0.dtb.perms_faults                        0                       # Number of TLB faults due to permissions restrictions
system.cpu0.dtb.read_accesses                       0                       # DTB read accesses
system.cpu0.dtb.write_accesses                      0                       # DTB write accesses
system.cpu0.dtb.inst_accesses                       0                       # ITB inst accesses
system.cpu0.dtb.hits                                0                       # DTB hits
system.cpu0.dtb.misses                              0                       # DTB misses
system.cpu0.dtb.accesses                            0                       # DTB accesses
system.cpu0.istage2_mmu.stage2_tlb.walker.pwrStateResidencyTicks::UNDEFINED  87537176000                       # Cumulative time (in ticks) in various power states
system.cpu0.istage2_mmu.stage2_tlb.walker.walks            0                       # Table walker walks requested
system.cpu0.istage2_mmu.stage2_tlb.walker.walkRequestOrigin_Requested::Data            0                       # Table walker requests started/completed, data/inst
system.cpu0.istage2_mmu.stage2_tlb.walker.walkRequestOrigin_Requested::Inst            0                       # Table walker requests started/completed, data/inst
system.cpu0.istage2_mmu.stage2_tlb.walker.walkRequestOrigin_Requested::total            0                       # Table walker requests started/completed, data/inst
system.cpu0.istage2_mmu.stage2_tlb.walker.walkRequestOrigin_Completed::Data            0                       # Table walker requests started/completed, data/inst
system.cpu0.istage2_mmu.stage2_tlb.walker.walkRequestOrigin_Completed::Inst            0                       # Table walker requests started/completed, data/inst
system.cpu0.istage2_mmu.stage2_tlb.walker.walkRequestOrigin_Completed::total            0                       # Table walker requests started/completed, data/inst
system.cpu0.istage2_mmu.stage2_tlb.walker.walkRequestOrigin::total            0                       # Table walker requests started/completed, data/inst
system.cpu0.istage2_mmu.stage2_tlb.inst_hits            0                       # ITB inst hits
system.cpu0.istage2_mmu.stage2_tlb.inst_misses            0                       # ITB inst misses
system.cpu0.istage2_mmu.stage2_tlb.read_hits            0                       # DTB read hits
system.cpu0.istage2_mmu.stage2_tlb.read_misses            0                       # DTB read misses
system.cpu0.istage2_mmu.stage2_tlb.write_hits            0                       # DTB write hits
system.cpu0.istage2_mmu.stage2_tlb.write_misses            0                       # DTB write misses
system.cpu0.istage2_mmu.stage2_tlb.flush_tlb            0                       # Number of times complete TLB was flushed
system.cpu0.istage2_mmu.stage2_tlb.flush_tlb_mva            0                       # Number of times TLB was flushed by MVA
system.cpu0.istage2_mmu.stage2_tlb.flush_tlb_mva_asid            0                       # Number of times TLB was flushed by MVA & ASID
system.cpu0.istage2_mmu.stage2_tlb.flush_tlb_asid            0                       # Number of times TLB was flushed by ASID
system.cpu0.istage2_mmu.stage2_tlb.flush_entries            0                       # Number of entries that have been flushed from TLB
system.cpu0.istage2_mmu.stage2_tlb.align_faults            0                       # Number of TLB faults due to alignment restrictions
system.cpu0.istage2_mmu.stage2_tlb.prefetch_faults            0                       # Number of TLB faults due to prefetch
system.cpu0.istage2_mmu.stage2_tlb.domain_faults            0                       # Number of TLB faults due to domain restrictions
system.cpu0.istage2_mmu.stage2_tlb.perms_faults            0                       # Number of TLB faults due to permissions restrictions
system.cpu0.istage2_mmu.stage2_tlb.read_accesses            0                       # DTB read accesses
system.cpu0.istage2_mmu.stage2_tlb.write_accesses            0                       # DTB write accesses
system.cpu0.istage2_mmu.stage2_tlb.inst_accesses            0                       # ITB inst accesses
system.cpu0.istage2_mmu.stage2_tlb.hits             0                       # DTB hits
system.cpu0.istage2_mmu.stage2_tlb.misses            0                       # DTB misses
system.cpu0.istage2_mmu.stage2_tlb.accesses            0                       # DTB accesses
system.cpu0.itb.walker.pwrStateResidencyTicks::UNDEFINED  87537176000                       # Cumulative time (in ticks) in various power states
system.cpu0.itb.walker.walks                        0                       # Table walker walks requested
system.cpu0.itb.walker.walkRequestOrigin_Requested::Data            0                       # Table walker requests started/completed, data/inst
system.cpu0.itb.walker.walkRequestOrigin_Requested::Inst            0                       # Table walker requests started/completed, data/inst
system.cpu0.itb.walker.walkRequestOrigin_Requested::total            0                       # Table walker requests started/completed, data/inst
system.cpu0.itb.walker.walkRequestOrigin_Completed::Data            0                       # Table walker requests started/completed, data/inst
system.cpu0.itb.walker.walkRequestOrigin_Completed::Inst            0                       # Table walker requests started/completed, data/inst
system.cpu0.itb.walker.walkRequestOrigin_Completed::total            0                       # Table walker requests started/completed, data/inst
system.cpu0.itb.walker.walkRequestOrigin::total            0                       # Table walker requests started/completed, data/inst
system.cpu0.itb.inst_hits                           0                       # ITB inst hits
system.cpu0.itb.inst_misses                         0                       # ITB inst misses
system.cpu0.itb.read_hits                           0                       # DTB read hits
system.cpu0.itb.read_misses                         0                       # DTB read misses
system.cpu0.itb.write_hits                          0                       # DTB write hits
system.cpu0.itb.write_misses                        0                       # DTB write misses
system.cpu0.itb.flush_tlb                           0                       # Number of times complete TLB was flushed
system.cpu0.itb.flush_tlb_mva                       0                       # Number of times TLB was flushed by MVA
system.cpu0.itb.flush_tlb_mva_asid                  0                       # Number of times TLB was flushed by MVA & ASID
system.cpu0.itb.flush_tlb_asid                      0                       # Number of times TLB was flushed by ASID
system.cpu0.itb.flush_entries                       0                       # Number of entries that have been flushed from TLB
system.cpu0.itb.align_faults                        0                       # Number of TLB faults due to alignment restrictions
system.cpu0.itb.prefetch_faults                     0                       # Number of TLB faults due to prefetch
system.cpu0.itb.domain_faults                       0                       # Number of TLB faults due to domain restrictions
system.cpu0.itb.perms_faults                        0                       # Number of TLB faults due to permissions restrictions
system.cpu0.itb.read_accesses                       0                       # DTB read accesses
system.cpu0.itb.write_accesses                      0                       # DTB write accesses
system.cpu0.itb.inst_accesses                       0                       # ITB inst accesses
system.cpu0.itb.hits                                0                       # DTB hits
system.cpu0.itb.misses                              0                       # DTB misses
system.cpu0.itb.accesses                            0                       # DTB accesses
system.cpu0.workload.num_syscalls              255262                       # Number of system calls
system.cpu0.pwrStateResidencyTicks::ON    87537176000                       # Cumulative time (in ticks) in various power states
system.cpu0.numCycles                        87537177                       # number of cpu cycles simulated
system.cpu0.numWorkItemsStarted                     0                       # number of work items this cpu started
system.cpu0.numWorkItemsCompleted                   0                       # number of work items this cpu completed
system.cpu0.fetch.icacheStallCycles          18589288                       # Number of cycles fetch is stalled on an Icache miss
system.cpu0.fetch.Insts                     103753889                       # Number of instructions fetch has processed
system.cpu0.fetch.Branches                   18494200                       # Number of branches that fetch encountered
system.cpu0.fetch.predictedBranches          11579412                       # Number of branches that fetch has predicted taken
system.cpu0.fetch.Cycles                     68469970                       # Number of cycles fetch has run and was not squashing or blocked
system.cpu0.fetch.SquashCycles                 875205                       # Number of cycles fetch has spent squashing
system.cpu0.fetch.MiscStallCycles                   1                       # Number of cycles fetch has spent waiting on interrupts, or bad addresses, or out of MSHRs
system.cpu0.fetch.PendingTrapStallCycles          177                       # Number of stall cycles due to pending traps
system.cpu0.fetch.CacheLines                 14366338                       # Number of cache lines fetched
system.cpu0.fetch.IcacheSquashes                77121                       # Number of outstanding Icache misses that were squashed
system.cpu0.fetch.rateDist::samples          87497038                       # Number of instructions fetched each cycle (Total)
system.cpu0.fetch.rateDist::mean             1.340531                       # Number of instructions fetched each cycle (Total)
system.cpu0.fetch.rateDist::stdev            0.878417                       # Number of instructions fetched each cycle (Total)
system.cpu0.fetch.rateDist::underflows              0      0.00%      0.00% # Number of instructions fetched each cycle (Total)
system.cpu0.fetch.rateDist::0                23932522     27.35%     27.35% # Number of instructions fetched each cycle (Total)
system.cpu0.fetch.rateDist::1                 9836532     11.24%     38.59% # Number of instructions fetched each cycle (Total)
system.cpu0.fetch.rateDist::2                53727984     61.41%    100.00% # Number of instructions fetched each cycle (Total)
system.cpu0.fetch.rateDist::overflows               0      0.00%    100.00% # Number of instructions fetched each cycle (Total)
system.cpu0.fetch.rateDist::min_value               0                       # Number of instructions fetched each cycle (Total)
system.cpu0.fetch.rateDist::max_value               2                       # Number of instructions fetched each cycle (Total)
system.cpu0.fetch.rateDist::total            87497038                       # Number of instructions fetched each cycle (Total)
system.cpu0.fetch.branchRate                 0.211273                       # Number of branch fetches per cycle
system.cpu0.fetch.rate                       1.185255                       # Number of inst fetches per cycle
system.cpu0.decode.IdleCycles                16299248                       # Number of cycles decode is idle
system.cpu0.decode.BlockedCycles             11581465                       # Number of cycles decode is blocked
system.cpu0.decode.RunCycles                 47299849                       # Number of cycles decode is running
system.cpu0.decode.UnblockCycles             11911781                       # Number of cycles decode is unblocking
system.cpu0.decode.SquashCycles                404695                       # Number of cycles decode is squashing
system.cpu0.decode.BranchResolved             4932428                       # Number of times decode resolved a branch
system.cpu0.decode.BranchMispred                33164                       # Number of times decode detected a branch misprediction
system.cpu0.decode.DecodedInsts             114830720                       # Number of instructions handled by decode
system.cpu0.decode.SquashedInsts                57282                       # Number of squashed instructions handled by decode
system.cpu0.rename.SquashCycles                404695                       # Number of cycles rename is squashing
system.cpu0.rename.IdleCycles                18894286                       # Number of cycles rename is idle
system.cpu0.rename.BlockCycles                1344420                       # Number of cycles rename is blocking
system.cpu0.rename.serializeStallCycles        561998                       # count of cycles rename stalled for serializing inst
system.cpu0.rename.RunCycles                 56583305                       # Number of cycles rename is running
system.cpu0.rename.UnblockCycles              9708334                       # Number of cycles rename is unblocking
system.cpu0.rename.RenamedInsts             114213101                       # Number of instructions processed by rename
system.cpu0.rename.IQFullEvents               7395513                       # Number of times rename has blocked due to IQ full
system.cpu0.rename.LQFullEvents                 48646                       # Number of times rename has blocked due to LQ full
system.cpu0.rename.SQFullEvents                  2524                       # Number of times rename has blocked due to SQ full
system.cpu0.rename.RenamedOperands          143464225                       # Number of destination operands rename has renamed
system.cpu0.rename.RenameLookups            527663518                       # Number of register rename lookups that rename has made
system.cpu0.rename.int_rename_lookups       145883150                       # Number of integer rename lookups
system.cpu0.rename.fp_rename_lookups               16                       # Number of floating rename lookups
system.cpu0.rename.CommittedMaps            124194145                       # Number of HB maps that are committed
system.cpu0.rename.UndoneMaps                19270080                       # Number of HB maps that are undone due to squashing
system.cpu0.rename.serializingInsts             20314                       # count of serializing insts renamed
system.cpu0.rename.tempSerializingInsts          8905                       # count of temporary serializing insts renamed
system.cpu0.rename.skidInsts                 10418316                       # count of insts added to the skid buffer
system.cpu0.memDep0.insertedLoads            14722364                       # Number of loads inserted to the mem dependence unit.
system.cpu0.memDep0.insertedStores            9321248                       # Number of stores inserted to the mem dependence unit.
system.cpu0.memDep0.conflictingLoads          4389257                       # Number of conflicting loads.
system.cpu0.memDep0.conflictingStores         1675929                       # Number of conflicting stores.
system.cpu0.iq.iqInstsAdded                 113002590                       # Number of instructions added to the IQ (excludes non-spec)
system.cpu0.iq.iqNonSpecInstsAdded              17879                       # Number of non-speculative instructions added to the IQ
system.cpu0.iq.iqInstsIssued                102451299                       # Number of instructions issued
system.cpu0.iq.iqSquashedInstsIssued          1462442                       # Number of squashed instructions issued
system.cpu0.iq.iqSquashedInstsExamined       12396178                       # Number of squashed instructions iterated over during squash; mainly for profiling
system.cpu0.iq.iqSquashedOperandsExamined     50073744                       # Number of squashed operands that are examined and possibly removed from graph
system.cpu0.iq.iqSquashedNonSpecRemoved           703                       # Number of squashed non-spec instructions that were removed
system.cpu0.iq.issued_per_cycle::samples     87497038                       # Number of insts issued each cycle
system.cpu0.iq.issued_per_cycle::mean        1.170912                       # Number of insts issued each cycle
system.cpu0.iq.issued_per_cycle::stdev       0.548320                       # Number of insts issued each cycle
system.cpu0.iq.issued_per_cycle::underflows            0      0.00%      0.00% # Number of insts issued each cycle
system.cpu0.iq.issued_per_cycle::0            6954001      7.95%      7.95% # Number of insts issued each cycle
system.cpu0.iq.issued_per_cycle::1           58634775     67.01%     74.96% # Number of insts issued each cycle
system.cpu0.iq.issued_per_cycle::2           21908262     25.04%    100.00% # Number of insts issued each cycle
system.cpu0.iq.issued_per_cycle::overflows            0      0.00%    100.00% # Number of insts issued each cycle
system.cpu0.iq.issued_per_cycle::min_value            0                       # Number of insts issued each cycle
system.cpu0.iq.issued_per_cycle::max_value            2                       # Number of insts issued each cycle
system.cpu0.iq.issued_per_cycle::total       87497038                       # Number of insts issued each cycle
system.cpu0.iq.fu_full::No_OpClass                  0      0.00%      0.00% # attempts to use FU when none available
system.cpu0.iq.fu_full::IntAlu               61308334     94.17%     94.17% # attempts to use FU when none available
system.cpu0.iq.fu_full::IntMult                     0      0.00%     94.17% # attempts to use FU when none available
system.cpu0.iq.fu_full::IntDiv                      0      0.00%     94.17% # attempts to use FU when none available
system.cpu0.iq.fu_full::FloatAdd                    0      0.00%     94.17% # attempts to use FU when none available
system.cpu0.iq.fu_full::FloatCmp                    0      0.00%     94.17% # attempts to use FU when none available
system.cpu0.iq.fu_full::FloatCvt                    0      0.00%     94.17% # attempts to use FU when none available
system.cpu0.iq.fu_full::FloatMult                   0      0.00%     94.17% # attempts to use FU when none available
system.cpu0.iq.fu_full::FloatMultAcc                0      0.00%     94.17% # attempts to use FU when none available
system.cpu0.iq.fu_full::FloatDiv                    0      0.00%     94.17% # attempts to use FU when none available
system.cpu0.iq.fu_full::FloatMisc                   0      0.00%     94.17% # attempts to use FU when none available
system.cpu0.iq.fu_full::FloatSqrt                   0      0.00%     94.17% # attempts to use FU when none available
system.cpu0.iq.fu_full::SimdAdd                     0      0.00%     94.17% # attempts to use FU when none available
system.cpu0.iq.fu_full::SimdAddAcc                  0      0.00%     94.17% # attempts to use FU when none available
system.cpu0.iq.fu_full::SimdAlu                     0      0.00%     94.17% # attempts to use FU when none available
system.cpu0.iq.fu_full::SimdCmp                     0      0.00%     94.17% # attempts to use FU when none available
system.cpu0.iq.fu_full::SimdCvt                     0      0.00%     94.17% # attempts to use FU when none available
system.cpu0.iq.fu_full::SimdMisc                    0      0.00%     94.17% # attempts to use FU when none available
system.cpu0.iq.fu_full::SimdMult                    0      0.00%     94.17% # attempts to use FU when none available
system.cpu0.iq.fu_full::SimdMultAcc                 0      0.00%     94.17% # attempts to use FU when none available
system.cpu0.iq.fu_full::SimdShift                   0      0.00%     94.17% # attempts to use FU when none available
system.cpu0.iq.fu_full::SimdShiftAcc                0      0.00%     94.17% # attempts to use FU when none available
system.cpu0.iq.fu_full::SimdSqrt                    0      0.00%     94.17% # attempts to use FU when none available
system.cpu0.iq.fu_full::SimdFloatAdd                0      0.00%     94.17% # attempts to use FU when none available
system.cpu0.iq.fu_full::SimdFloatAlu                0      0.00%     94.17% # attempts to use FU when none available
system.cpu0.iq.fu_full::SimdFloatCmp                0      0.00%     94.17% # attempts to use FU when none available
system.cpu0.iq.fu_full::SimdFloatCvt                0      0.00%     94.17% # attempts to use FU when none available
system.cpu0.iq.fu_full::SimdFloatDiv                0      0.00%     94.17% # attempts to use FU when none available
system.cpu0.iq.fu_full::SimdFloatMisc               0      0.00%     94.17% # attempts to use FU when none available
system.cpu0.iq.fu_full::SimdFloatMult               0      0.00%     94.17% # attempts to use FU when none available
system.cpu0.iq.fu_full::SimdFloatMultAcc            0      0.00%     94.17% # attempts to use FU when none available
system.cpu0.iq.fu_full::SimdFloatSqrt               0      0.00%     94.17% # attempts to use FU when none available
system.cpu0.iq.fu_full::MemRead               2444097      3.75%     97.92% # attempts to use FU when none available
system.cpu0.iq.fu_full::MemWrite              1353550      2.08%    100.00% # attempts to use FU when none available
system.cpu0.iq.fu_full::FloatMemRead                0      0.00%    100.00% # attempts to use FU when none available
system.cpu0.iq.fu_full::FloatMemWrite               0      0.00%    100.00% # attempts to use FU when none available
system.cpu0.iq.fu_full::IprAccess                   0      0.00%    100.00% # attempts to use FU when none available
system.cpu0.iq.fu_full::InstPrefetch                0      0.00%    100.00% # attempts to use FU when none available
system.cpu0.iq.FU_type_0::No_OpClass                0      0.00%      0.00% # Type of FU issued
system.cpu0.iq.FU_type_0::IntAlu             78873565     76.99%     76.99% # Type of FU issued
system.cpu0.iq.FU_type_0::IntMult              523850      0.51%     77.50% # Type of FU issued
system.cpu0.iq.FU_type_0::IntDiv                    0      0.00%     77.50% # Type of FU issued
system.cpu0.iq.FU_type_0::FloatAdd                  0      0.00%     77.50% # Type of FU issued
system.cpu0.iq.FU_type_0::FloatCmp                  0      0.00%     77.50% # Type of FU issued
system.cpu0.iq.FU_type_0::FloatCvt                  0      0.00%     77.50% # Type of FU issued
system.cpu0.iq.FU_type_0::FloatMult                 0      0.00%     77.50% # Type of FU issued
system.cpu0.iq.FU_type_0::FloatMultAcc              0      0.00%     77.50% # Type of FU issued
system.cpu0.iq.FU_type_0::FloatDiv                  0      0.00%     77.50% # Type of FU issued
system.cpu0.iq.FU_type_0::FloatMisc                 0      0.00%     77.50% # Type of FU issued
system.cpu0.iq.FU_type_0::FloatSqrt                 0      0.00%     77.50% # Type of FU issued
system.cpu0.iq.FU_type_0::SimdAdd                   0      0.00%     77.50% # Type of FU issued
system.cpu0.iq.FU_type_0::SimdAddAcc                0      0.00%     77.50% # Type of FU issued
system.cpu0.iq.FU_type_0::SimdAlu                   0      0.00%     77.50% # Type of FU issued
system.cpu0.iq.FU_type_0::SimdCmp                   0      0.00%     77.50% # Type of FU issued
system.cpu0.iq.FU_type_0::SimdCvt                   0      0.00%     77.50% # Type of FU issued
system.cpu0.iq.FU_type_0::SimdMisc                  0      0.00%     77.50% # Type of FU issued
system.cpu0.iq.FU_type_0::SimdMult                  0      0.00%     77.50% # Type of FU issued
system.cpu0.iq.FU_type_0::SimdMultAcc               0      0.00%     77.50% # Type of FU issued
system.cpu0.iq.FU_type_0::SimdShift                 0      0.00%     77.50% # Type of FU issued
system.cpu0.iq.FU_type_0::SimdShiftAcc              0      0.00%     77.50% # Type of FU issued
system.cpu0.iq.FU_type_0::SimdSqrt                  0      0.00%     77.50% # Type of FU issued
system.cpu0.iq.FU_type_0::SimdFloatAdd              0      0.00%     77.50% # Type of FU issued
system.cpu0.iq.FU_type_0::SimdFloatAlu              0      0.00%     77.50% # Type of FU issued
system.cpu0.iq.FU_type_0::SimdFloatCmp              0      0.00%     77.50% # Type of FU issued
system.cpu0.iq.FU_type_0::SimdFloatCvt              0      0.00%     77.50% # Type of FU issued
system.cpu0.iq.FU_type_0::SimdFloatDiv              0      0.00%     77.50% # Type of FU issued
system.cpu0.iq.FU_type_0::SimdFloatMisc         11308      0.01%     77.51% # Type of FU issued
system.cpu0.iq.FU_type_0::SimdFloatMult             0      0.00%     77.51% # Type of FU issued
system.cpu0.iq.FU_type_0::SimdFloatMultAcc            0      0.00%     77.51% # Type of FU issued
system.cpu0.iq.FU_type_0::SimdFloatSqrt             0      0.00%     77.51% # Type of FU issued
system.cpu0.iq.FU_type_0::MemRead            14231477     13.89%     91.40% # Type of FU issued
system.cpu0.iq.FU_type_0::MemWrite            8811083      8.60%    100.00% # Type of FU issued
system.cpu0.iq.FU_type_0::FloatMemRead              0      0.00%    100.00% # Type of FU issued
system.cpu0.iq.FU_type_0::FloatMemWrite            16      0.00%    100.00% # Type of FU issued
system.cpu0.iq.FU_type_0::IprAccess                 0      0.00%    100.00% # Type of FU issued
system.cpu0.iq.FU_type_0::InstPrefetch              0      0.00%    100.00% # Type of FU issued
system.cpu0.iq.FU_type_0::total             102451299                       # Type of FU issued
system.cpu0.iq.rate                          1.170375                       # Inst issue rate
system.cpu0.iq.fu_busy_cnt                   65105981                       # FU busy when requested
system.cpu0.iq.fu_busy_rate                  0.635482                       # FU busy rate (busy events/executed inst)
system.cpu0.iq.int_inst_queue_reads         358968027                       # Number of integer instruction queue reads
system.cpu0.iq.int_inst_queue_writes        125418340                       # Number of integer instruction queue writes
system.cpu0.iq.int_inst_queue_wakeup_accesses    102078572                       # Number of integer instruction queue wakeup accesses
system.cpu0.iq.fp_inst_queue_reads                 32                       # Number of floating instruction queue reads
system.cpu0.iq.fp_inst_queue_writes                16                       # Number of floating instruction queue writes
system.cpu0.iq.fp_inst_queue_wakeup_accesses           16                       # Number of floating instruction queue wakeup accesses
system.cpu0.iq.int_alu_accesses             167557264                       # Number of integer alu accesses
system.cpu0.iq.fp_alu_accesses                     16                       # Number of floating point alu accesses
system.cpu0.iew.lsq.thread0.forwLoads         1895683                       # Number of loads that had data forwarded from stores
system.cpu0.iew.lsq.thread0.invAddrLoads            0                       # Number of loads ignored due to an invalid address
system.cpu0.iew.lsq.thread0.squashedLoads      1125266                       # Number of loads squashed
system.cpu0.iew.lsq.thread0.ignoredResponses          342                       # Number of memory responses ignored because the instruction is squashed
system.cpu0.iew.lsq.thread0.memOrderViolation         1735                       # Number of memory ordering violations
system.cpu0.iew.lsq.thread0.squashedStores       664158                       # Number of stores squashed
system.cpu0.iew.lsq.thread0.invAddrSwpfs            0                       # Number of software prefetches ignored due to an invalid address
system.cpu0.iew.lsq.thread0.blockedLoads            0                       # Number of blocked loads due to partial load-store forwarding
system.cpu0.iew.lsq.thread0.rescheduledLoads       150360                       # Number of loads that were rescheduled
system.cpu0.iew.lsq.thread0.cacheBlocked          474                       # Number of times an access to memory failed due to the cache being blocked
system.cpu0.iew.iewIdleCycles                       0                       # Number of cycles IEW is idle
system.cpu0.iew.iewSquashCycles                404695                       # Number of cycles IEW is squashing
system.cpu0.iew.iewBlockCycles                1318608                       # Number of cycles IEW is blocking
system.cpu0.iew.iewUnblockCycles                20120                       # Number of cycles IEW is unblocking
system.cpu0.iew.iewDispatchedInsts          113020504                       # Number of instructions dispatched to IQ
system.cpu0.iew.iewDispSquashedInsts            80480                       # Number of squashed instructions skipped by dispatch
system.cpu0.iew.iewDispLoadInsts             14722364                       # Number of dispatched load instructions
system.cpu0.iew.iewDispStoreInsts             9321248                       # Number of dispatched store instructions
system.cpu0.iew.iewDispNonSpecInsts              8834                       # Number of dispatched non-speculative instructions
system.cpu0.iew.iewIQFullEvents                    31                       # Number of times the IQ has become full, causing a stall
system.cpu0.iew.iewLSQFullEvents                  409                       # Number of times the LSQ has become full, causing a stall
system.cpu0.iew.memOrderViolationEvents          1735                       # Number of memory order violations
system.cpu0.iew.predictedTakenIncorrect        215748                       # Number of branches that were predicted taken incorrectly
system.cpu0.iew.predictedNotTakenIncorrect       209021                       # Number of branches that were predicted not taken incorrectly
system.cpu0.iew.branchMispredicts              424769                       # Number of branch mispredicts detected at execute
system.cpu0.iew.iewExecutedInsts            102313213                       # Number of executed instructions
system.cpu0.iew.iewExecLoadInsts             14184791                       # Number of load instructions executed
system.cpu0.iew.iewExecSquashedInsts           138086                       # Number of squashed instructions skipped in execute
system.cpu0.iew.exec_swp                            0                       # number of swp insts executed
system.cpu0.iew.exec_nop                           35                       # number of nop insts executed
system.cpu0.iew.exec_refs                    22969313                       # number of memory reference insts executed
system.cpu0.iew.exec_branches                15964050                       # Number of branches executed
system.cpu0.iew.exec_stores                   8784522                       # Number of stores executed
system.cpu0.iew.exec_rate                    1.168797                       # Inst execution rate
system.cpu0.iew.wb_sent                     102104176                       # cumulative count of insts sent to commit
system.cpu0.iew.wb_count                    102078588                       # cumulative count of insts written-back
system.cpu0.iew.wb_producers                 73633239                       # num instructions producing a value
system.cpu0.iew.wb_consumers                169995651                       # num instructions consuming a value
system.cpu0.iew.wb_rate                      1.166117                       # insts written-back per cycle
system.cpu0.iew.wb_fanout                    0.433148                       # average fanout of values written-back
system.cpu0.commit.commitSquashedInsts       12396304                       # The number of squashed insts skipped by commit
system.cpu0.commit.commitNonSpecStalls          17176                       # The number of times commit has been forced to stall to communicate backwards
system.cpu0.commit.branchMispredicts           400973                       # The number of times a branch was mispredicted
system.cpu0.commit.committed_per_cycle::samples     85776301                       # Number of insts commited each cycle
system.cpu0.commit.committed_per_cycle::mean     1.173101                       # Number of insts commited each cycle
system.cpu0.commit.committed_per_cycle::stdev     1.033500                       # Number of insts commited each cycle
system.cpu0.commit.committed_per_cycle::underflows            0      0.00%      0.00% # Number of insts commited each cycle
system.cpu0.commit.committed_per_cycle::0     11184127     13.04%     13.04% # Number of insts commited each cycle
system.cpu0.commit.committed_per_cycle::1     61226494     71.38%     84.42% # Number of insts commited each cycle
system.cpu0.commit.committed_per_cycle::2      8058277      9.39%     93.81% # Number of insts commited each cycle
system.cpu0.commit.committed_per_cycle::3      2451463      2.86%     96.67% # Number of insts commited each cycle
system.cpu0.commit.committed_per_cycle::4      1038931      1.21%     97.88% # Number of insts commited each cycle
system.cpu0.commit.committed_per_cycle::5       272738      0.32%     98.20% # Number of insts commited each cycle
system.cpu0.commit.committed_per_cycle::6       532731      0.62%     98.82% # Number of insts commited each cycle
system.cpu0.commit.committed_per_cycle::7       881266      1.03%     99.85% # Number of insts commited each cycle
system.cpu0.commit.committed_per_cycle::8       130274      0.15%    100.00% # Number of insts commited each cycle
system.cpu0.commit.committed_per_cycle::overflows            0      0.00%    100.00% # Number of insts commited each cycle
system.cpu0.commit.committed_per_cycle::min_value            0                       # Number of insts commited each cycle
system.cpu0.commit.committed_per_cycle::max_value            8                       # Number of insts commited each cycle
system.cpu0.commit.committed_per_cycle::total     85776301                       # Number of insts commited each cycle
system.cpu0.commit.committedInsts            89055553                       # Number of instructions committed
system.cpu0.commit.committedOps             100624291                       # Number of ops (including micro ops) committed
system.cpu0.commit.swp_count                        0                       # Number of s/w prefetches committed
system.cpu0.commit.refs                      22254188                       # Number of memory references committed
system.cpu0.commit.loads                     13597098                       # Number of loads committed
system.cpu0.commit.membars                       8934                       # Number of memory barriers committed
system.cpu0.commit.branches                  15816786                       # Number of branches committed
system.cpu0.commit.fp_insts                        16                       # Number of committed floating point instructions.
system.cpu0.commit.int_insts                 90959011                       # Number of committed integer instructions.
system.cpu0.commit.function_calls             2565486                       # Number of function calls committed.
system.cpu0.commit.op_class_0::No_OpClass            0      0.00%      0.00% # Class of committed instruction
system.cpu0.commit.op_class_0::IntAlu        77853647     77.37%     77.37% # Class of committed instruction
system.cpu0.commit.op_class_0::IntMult         505148      0.50%     77.87% # Class of committed instruction
system.cpu0.commit.op_class_0::IntDiv               0      0.00%     77.87% # Class of committed instruction
system.cpu0.commit.op_class_0::FloatAdd             0      0.00%     77.87% # Class of committed instruction
system.cpu0.commit.op_class_0::FloatCmp             0      0.00%     77.87% # Class of committed instruction
system.cpu0.commit.op_class_0::FloatCvt             0      0.00%     77.87% # Class of committed instruction
system.cpu0.commit.op_class_0::FloatMult            0      0.00%     77.87% # Class of committed instruction
system.cpu0.commit.op_class_0::FloatMultAcc            0      0.00%     77.87% # Class of committed instruction
system.cpu0.commit.op_class_0::FloatDiv             0      0.00%     77.87% # Class of committed instruction
system.cpu0.commit.op_class_0::FloatMisc            0      0.00%     77.87% # Class of committed instruction
system.cpu0.commit.op_class_0::FloatSqrt            0      0.00%     77.87% # Class of committed instruction
system.cpu0.commit.op_class_0::SimdAdd              0      0.00%     77.87% # Class of committed instruction
system.cpu0.commit.op_class_0::SimdAddAcc            0      0.00%     77.87% # Class of committed instruction
system.cpu0.commit.op_class_0::SimdAlu              0      0.00%     77.87% # Class of committed instruction
system.cpu0.commit.op_class_0::SimdCmp              0      0.00%     77.87% # Class of committed instruction
system.cpu0.commit.op_class_0::SimdCvt              0      0.00%     77.87% # Class of committed instruction
system.cpu0.commit.op_class_0::SimdMisc             0      0.00%     77.87% # Class of committed instruction
system.cpu0.commit.op_class_0::SimdMult             0      0.00%     77.87% # Class of committed instruction
system.cpu0.commit.op_class_0::SimdMultAcc            0      0.00%     77.87% # Class of committed instruction
system.cpu0.commit.op_class_0::SimdShift            0      0.00%     77.87% # Class of committed instruction
system.cpu0.commit.op_class_0::SimdShiftAcc            0      0.00%     77.87% # Class of committed instruction
system.cpu0.commit.op_class_0::SimdSqrt             0      0.00%     77.87% # Class of committed instruction
system.cpu0.commit.op_class_0::SimdFloatAdd            0      0.00%     77.87% # Class of committed instruction
system.cpu0.commit.op_class_0::SimdFloatAlu            0      0.00%     77.87% # Class of committed instruction
system.cpu0.commit.op_class_0::SimdFloatCmp            0      0.00%     77.87% # Class of committed instruction
system.cpu0.commit.op_class_0::SimdFloatCvt            0      0.00%     77.87% # Class of committed instruction
system.cpu0.commit.op_class_0::SimdFloatDiv            0      0.00%     77.87% # Class of committed instruction
system.cpu0.commit.op_class_0::SimdFloatMisc        11308      0.01%     77.88% # Class of committed instruction
system.cpu0.commit.op_class_0::SimdFloatMult            0      0.00%     77.88% # Class of committed instruction
system.cpu0.commit.op_class_0::SimdFloatMultAcc            0      0.00%     77.88% # Class of committed instruction
system.cpu0.commit.op_class_0::SimdFloatSqrt            0      0.00%     77.88% # Class of committed instruction
system.cpu0.commit.op_class_0::MemRead       13597098     13.51%     91.40% # Class of committed instruction
system.cpu0.commit.op_class_0::MemWrite       8657074      8.60%    100.00% # Class of committed instruction
system.cpu0.commit.op_class_0::FloatMemRead            0      0.00%    100.00% # Class of committed instruction
system.cpu0.commit.op_class_0::FloatMemWrite           16      0.00%    100.00% # Class of committed instruction
system.cpu0.commit.op_class_0::IprAccess            0      0.00%    100.00% # Class of committed instruction
system.cpu0.commit.op_class_0::InstPrefetch            0      0.00%    100.00% # Class of committed instruction
system.cpu0.commit.op_class_0::total        100624291                       # Class of committed instruction
system.cpu0.commit.bw_lim_events               130274                       # number cycles where commit BW limit reached
system.cpu0.rob.rob_reads                   198638354                       # The number of ROB reads
system.cpu0.rob.rob_writes                  227762382                       # The number of ROB writes
system.cpu0.timesIdled                           3376                       # Number of times that the entire CPU went into an idle state and unscheduled itself
system.cpu0.idleCycles                          40139                       # Total number of cycles that the CPU has spent unscheduled due to idling
system.cpu0.committedInsts                   89055553                       # Number of Instructions Simulated
system.cpu0.committedOps                    100624291                       # Number of Ops (including micro ops) Simulated
system.cpu0.cpi                              0.982950                       # CPI: Cycles Per Instruction
system.cpu0.cpi_total                        0.982950                       # CPI: Total CPI of All Threads
system.cpu0.ipc                              1.017345                       # IPC: Instructions Per Cycle
system.cpu0.ipc_total                        1.017345                       # IPC: Total IPC of All Threads
system.cpu0.int_regfile_reads               120199898                       # number of integer regfile reads
system.cpu0.int_regfile_writes               70951757                       # number of integer regfile writes
system.cpu0.fp_regfile_reads                     1136                       # number of floating regfile reads
system.cpu0.cc_regfile_reads                352049166                       # number of cc regfile reads
system.cpu0.cc_regfile_writes                53333888                       # number of cc regfile writes
system.cpu0.misc_regfile_reads               22800545                       # number of misc regfile reads
system.cpu0.misc_regfile_writes                 13259                       # number of misc regfile writes
system.cpu0.dcache.tags.pwrStateResidencyTicks::UNDEFINED  87537176000                       # Cumulative time (in ticks) in various power states
system.cpu0.dcache.tags.replacements             9245                       # number of replacements
system.cpu0.dcache.tags.tagsinuse          240.253737                       # Cycle average of tags in use
system.cpu0.dcache.tags.total_refs           20179392                       # Total number of references to valid blocks.
system.cpu0.dcache.tags.sampled_refs             9500                       # Sample count of references to valid blocks.
system.cpu0.dcache.tags.avg_refs          2124.146526                       # Average number of references to valid blocks.
system.cpu0.dcache.tags.warmup_cycle      11921324500                       # Cycle when the warmup percentage was hit.
system.cpu0.dcache.tags.occ_blocks::cpu0.data   240.253737                       # Average occupied blocks per requestor
system.cpu0.dcache.tags.occ_percent::cpu0.data     0.938491                       # Average percentage of cache occupancy
system.cpu0.dcache.tags.occ_percent::total     0.938491                       # Average percentage of cache occupancy
system.cpu0.dcache.tags.occ_task_id_blocks::1024          255                       # Occupied blocks per task id
system.cpu0.dcache.tags.age_task_id_blocks_1024::0           26                       # Occupied blocks per task id
system.cpu0.dcache.tags.age_task_id_blocks_1024::1          108                       # Occupied blocks per task id
system.cpu0.dcache.tags.age_task_id_blocks_1024::2           34                       # Occupied blocks per task id
system.cpu0.dcache.tags.age_task_id_blocks_1024::3           52                       # Occupied blocks per task id
system.cpu0.dcache.tags.age_task_id_blocks_1024::4           35                       # Occupied blocks per task id
system.cpu0.dcache.tags.occ_task_id_percent::1024     0.996094                       # Percentage of cache occupancy per task id
system.cpu0.dcache.tags.tag_accesses         80795528                       # Number of tag accesses
system.cpu0.dcache.tags.data_accesses        80795528                       # Number of data accesses
system.cpu0.dcache.pwrStateResidencyTicks::UNDEFINED  87537176000                       # Cumulative time (in ticks) in various power states
system.cpu0.dcache.ReadReq_hits::cpu0.data     11675673                       # number of ReadReq hits
system.cpu0.dcache.ReadReq_hits::total       11675673                       # number of ReadReq hits
system.cpu0.dcache.WriteReq_hits::cpu0.data      8491803                       # number of WriteReq hits
system.cpu0.dcache.WriteReq_hits::total       8491803                       # number of WriteReq hits
system.cpu0.dcache.LoadLockedReq_hits::cpu0.data         5838                       # number of LoadLockedReq hits
system.cpu0.dcache.LoadLockedReq_hits::total         5838                       # number of LoadLockedReq hits
system.cpu0.dcache.StoreCondReq_hits::cpu0.data         4900                       # number of StoreCondReq hits
system.cpu0.dcache.StoreCondReq_hits::total         4900                       # number of StoreCondReq hits
system.cpu0.dcache.demand_hits::cpu0.data     20167476                       # number of demand (read+write) hits
system.cpu0.dcache.demand_hits::total        20167476                       # number of demand (read+write) hits
system.cpu0.dcache.overall_hits::cpu0.data     20167476                       # number of overall hits
system.cpu0.dcache.overall_hits::total       20167476                       # number of overall hits
system.cpu0.dcache.ReadReq_misses::cpu0.data         6439                       # number of ReadReq misses
system.cpu0.dcache.ReadReq_misses::total         6439                       # number of ReadReq misses
system.cpu0.dcache.WriteReq_misses::cpu0.data        10181                       # number of WriteReq misses
system.cpu0.dcache.WriteReq_misses::total        10181                       # number of WriteReq misses
system.cpu0.dcache.LoadLockedReq_misses::cpu0.data          383                       # number of LoadLockedReq misses
system.cpu0.dcache.LoadLockedReq_misses::total          383                       # number of LoadLockedReq misses
system.cpu0.dcache.StoreCondReq_misses::cpu0.data          919                       # number of StoreCondReq misses
system.cpu0.dcache.StoreCondReq_misses::total          919                       # number of StoreCondReq misses
system.cpu0.dcache.demand_misses::cpu0.data        16620                       # number of demand (read+write) misses
system.cpu0.dcache.demand_misses::total         16620                       # number of demand (read+write) misses
system.cpu0.dcache.overall_misses::cpu0.data        16620                       # number of overall misses
system.cpu0.dcache.overall_misses::total        16620                       # number of overall misses
system.cpu0.dcache.ReadReq_miss_latency::cpu0.data    142643000                       # number of ReadReq miss cycles
system.cpu0.dcache.ReadReq_miss_latency::total    142643000                       # number of ReadReq miss cycles
system.cpu0.dcache.WriteReq_miss_latency::cpu0.data    262847908                       # number of WriteReq miss cycles
system.cpu0.dcache.WriteReq_miss_latency::total    262847908                       # number of WriteReq miss cycles
system.cpu0.dcache.LoadLockedReq_miss_latency::cpu0.data      3037000                       # number of LoadLockedReq miss cycles
system.cpu0.dcache.LoadLockedReq_miss_latency::total      3037000                       # number of LoadLockedReq miss cycles
system.cpu0.dcache.StoreCondReq_miss_latency::cpu0.data      8337000                       # number of StoreCondReq miss cycles
system.cpu0.dcache.StoreCondReq_miss_latency::total      8337000                       # number of StoreCondReq miss cycles
system.cpu0.dcache.StoreCondFailReq_miss_latency::cpu0.data       489000                       # number of StoreCondFailReq miss cycles
system.cpu0.dcache.StoreCondFailReq_miss_latency::total       489000                       # number of StoreCondFailReq miss cycles
system.cpu0.dcache.demand_miss_latency::cpu0.data    405490908                       # number of demand (read+write) miss cycles
system.cpu0.dcache.demand_miss_latency::total    405490908                       # number of demand (read+write) miss cycles
system.cpu0.dcache.overall_miss_latency::cpu0.data    405490908                       # number of overall miss cycles
system.cpu0.dcache.overall_miss_latency::total    405490908                       # number of overall miss cycles
system.cpu0.dcache.ReadReq_accesses::cpu0.data     11682112                       # number of ReadReq accesses(hits+misses)
system.cpu0.dcache.ReadReq_accesses::total     11682112                       # number of ReadReq accesses(hits+misses)
system.cpu0.dcache.WriteReq_accesses::cpu0.data      8501984                       # number of WriteReq accesses(hits+misses)
system.cpu0.dcache.WriteReq_accesses::total      8501984                       # number of WriteReq accesses(hits+misses)
system.cpu0.dcache.LoadLockedReq_accesses::cpu0.data         6221                       # number of LoadLockedReq accesses(hits+misses)
system.cpu0.dcache.LoadLockedReq_accesses::total         6221                       # number of LoadLockedReq accesses(hits+misses)
system.cpu0.dcache.StoreCondReq_accesses::cpu0.data         5819                       # number of StoreCondReq accesses(hits+misses)
system.cpu0.dcache.StoreCondReq_accesses::total         5819                       # number of StoreCondReq accesses(hits+misses)
system.cpu0.dcache.demand_accesses::cpu0.data     20184096                       # number of demand (read+write) accesses
system.cpu0.dcache.demand_accesses::total     20184096                       # number of demand (read+write) accesses
system.cpu0.dcache.overall_accesses::cpu0.data     20184096                       # number of overall (read+write) accesses
system.cpu0.dcache.overall_accesses::total     20184096                       # number of overall (read+write) accesses
system.cpu0.dcache.ReadReq_miss_rate::cpu0.data     0.000551                       # miss rate for ReadReq accesses
system.cpu0.dcache.ReadReq_miss_rate::total     0.000551                       # miss rate for ReadReq accesses
system.cpu0.dcache.WriteReq_miss_rate::cpu0.data     0.001197                       # miss rate for WriteReq accesses
system.cpu0.dcache.WriteReq_miss_rate::total     0.001197                       # miss rate for WriteReq accesses
system.cpu0.dcache.LoadLockedReq_miss_rate::cpu0.data     0.061566                       # miss rate for LoadLockedReq accesses
system.cpu0.dcache.LoadLockedReq_miss_rate::total     0.061566                       # miss rate for LoadLockedReq accesses
system.cpu0.dcache.StoreCondReq_miss_rate::cpu0.data     0.157931                       # miss rate for StoreCondReq accesses
system.cpu0.dcache.StoreCondReq_miss_rate::total     0.157931                       # miss rate for StoreCondReq accesses
system.cpu0.dcache.demand_miss_rate::cpu0.data     0.000823                       # miss rate for demand accesses
system.cpu0.dcache.demand_miss_rate::total     0.000823                       # miss rate for demand accesses
system.cpu0.dcache.overall_miss_rate::cpu0.data     0.000823                       # miss rate for overall accesses
system.cpu0.dcache.overall_miss_rate::total     0.000823                       # miss rate for overall accesses
system.cpu0.dcache.ReadReq_avg_miss_latency::cpu0.data 22152.974064                       # average ReadReq miss latency
system.cpu0.dcache.ReadReq_avg_miss_latency::total 22152.974064                       # average ReadReq miss latency
system.cpu0.dcache.WriteReq_avg_miss_latency::cpu0.data 25817.494156                       # average WriteReq miss latency
system.cpu0.dcache.WriteReq_avg_miss_latency::total 25817.494156                       # average WriteReq miss latency
system.cpu0.dcache.LoadLockedReq_avg_miss_latency::cpu0.data  7929.503916                       # average LoadLockedReq miss latency
system.cpu0.dcache.LoadLockedReq_avg_miss_latency::total  7929.503916                       # average LoadLockedReq miss latency
system.cpu0.dcache.StoreCondReq_avg_miss_latency::cpu0.data  9071.817193                       # average StoreCondReq miss latency
system.cpu0.dcache.StoreCondReq_avg_miss_latency::total  9071.817193                       # average StoreCondReq miss latency
system.cpu0.dcache.StoreCondFailReq_avg_miss_latency::cpu0.data          inf                       # average StoreCondFailReq miss latency
system.cpu0.dcache.StoreCondFailReq_avg_miss_latency::total          inf                       # average StoreCondFailReq miss latency
system.cpu0.dcache.demand_avg_miss_latency::cpu0.data 24397.768231                       # average overall miss latency
system.cpu0.dcache.demand_avg_miss_latency::total 24397.768231                       # average overall miss latency
system.cpu0.dcache.overall_avg_miss_latency::cpu0.data 24397.768231                       # average overall miss latency
system.cpu0.dcache.overall_avg_miss_latency::total 24397.768231                       # average overall miss latency
system.cpu0.dcache.blocked_cycles::no_mshrs         1675                       # number of cycles access was blocked
system.cpu0.dcache.blocked_cycles::no_targets            0                       # number of cycles access was blocked
system.cpu0.dcache.blocked::no_mshrs              185                       # number of cycles access was blocked
system.cpu0.dcache.blocked::no_targets              0                       # number of cycles access was blocked
system.cpu0.dcache.avg_blocked_cycles::no_mshrs     9.054054                       # average number of cycles each access was blocked
system.cpu0.dcache.avg_blocked_cycles::no_targets          nan                       # average number of cycles each access was blocked
system.cpu0.dcache.writebacks::writebacks         7529                       # number of writebacks
system.cpu0.dcache.writebacks::total             7529                       # number of writebacks
system.cpu0.dcache.ReadReq_mshr_hits::cpu0.data         3038                       # number of ReadReq MSHR hits
system.cpu0.dcache.ReadReq_mshr_hits::total         3038                       # number of ReadReq MSHR hits
system.cpu0.dcache.WriteReq_mshr_hits::cpu0.data         2797                       # number of WriteReq MSHR hits
system.cpu0.dcache.WriteReq_mshr_hits::total         2797                       # number of WriteReq MSHR hits
system.cpu0.dcache.LoadLockedReq_mshr_hits::cpu0.data           68                       # number of LoadLockedReq MSHR hits
system.cpu0.dcache.LoadLockedReq_mshr_hits::total           68                       # number of LoadLockedReq MSHR hits
system.cpu0.dcache.demand_mshr_hits::cpu0.data         5835                       # number of demand (read+write) MSHR hits
system.cpu0.dcache.demand_mshr_hits::total         5835                       # number of demand (read+write) MSHR hits
system.cpu0.dcache.overall_mshr_hits::cpu0.data         5835                       # number of overall MSHR hits
system.cpu0.dcache.overall_mshr_hits::total         5835                       # number of overall MSHR hits
system.cpu0.dcache.ReadReq_mshr_misses::cpu0.data         3401                       # number of ReadReq MSHR misses
system.cpu0.dcache.ReadReq_mshr_misses::total         3401                       # number of ReadReq MSHR misses
system.cpu0.dcache.WriteReq_mshr_misses::cpu0.data         7384                       # number of WriteReq MSHR misses
system.cpu0.dcache.WriteReq_mshr_misses::total         7384                       # number of WriteReq MSHR misses
system.cpu0.dcache.LoadLockedReq_mshr_misses::cpu0.data          315                       # number of LoadLockedReq MSHR misses
system.cpu0.dcache.LoadLockedReq_mshr_misses::total          315                       # number of LoadLockedReq MSHR misses
system.cpu0.dcache.StoreCondReq_mshr_misses::cpu0.data          919                       # number of StoreCondReq MSHR misses
system.cpu0.dcache.StoreCondReq_mshr_misses::total          919                       # number of StoreCondReq MSHR misses
system.cpu0.dcache.demand_mshr_misses::cpu0.data        10785                       # number of demand (read+write) MSHR misses
system.cpu0.dcache.demand_mshr_misses::total        10785                       # number of demand (read+write) MSHR misses
system.cpu0.dcache.overall_mshr_misses::cpu0.data        10785                       # number of overall MSHR misses
system.cpu0.dcache.overall_mshr_misses::total        10785                       # number of overall MSHR misses
system.cpu0.dcache.ReadReq_mshr_miss_latency::cpu0.data     59403500                       # number of ReadReq MSHR miss cycles
system.cpu0.dcache.ReadReq_mshr_miss_latency::total     59403500                       # number of ReadReq MSHR miss cycles
system.cpu0.dcache.WriteReq_mshr_miss_latency::cpu0.data    135731945                       # number of WriteReq MSHR miss cycles
system.cpu0.dcache.WriteReq_mshr_miss_latency::total    135731945                       # number of WriteReq MSHR miss cycles
system.cpu0.dcache.LoadLockedReq_mshr_miss_latency::cpu0.data      1824500                       # number of LoadLockedReq MSHR miss cycles
system.cpu0.dcache.LoadLockedReq_mshr_miss_latency::total      1824500                       # number of LoadLockedReq MSHR miss cycles
system.cpu0.dcache.StoreCondReq_mshr_miss_latency::cpu0.data      6584000                       # number of StoreCondReq MSHR miss cycles
system.cpu0.dcache.StoreCondReq_mshr_miss_latency::total      6584000                       # number of StoreCondReq MSHR miss cycles
system.cpu0.dcache.StoreCondFailReq_mshr_miss_latency::cpu0.data       397000                       # number of StoreCondFailReq MSHR miss cycles
system.cpu0.dcache.StoreCondFailReq_mshr_miss_latency::total       397000                       # number of StoreCondFailReq MSHR miss cycles
system.cpu0.dcache.demand_mshr_miss_latency::cpu0.data    195135445                       # number of demand (read+write) MSHR miss cycles
system.cpu0.dcache.demand_mshr_miss_latency::total    195135445                       # number of demand (read+write) MSHR miss cycles
system.cpu0.dcache.overall_mshr_miss_latency::cpu0.data    195135445                       # number of overall MSHR miss cycles
system.cpu0.dcache.overall_mshr_miss_latency::total    195135445                       # number of overall MSHR miss cycles
[...]
system.l2.overall_avg_mshr_miss_latency::cpu3.inst 51666.666667                       # average overall mshr miss latency
system.l2.overall_avg_mshr_miss_latency::cpu3.data 51308.823529                       # average overall mshr miss latency
system.l2.overall_avg_mshr_miss_latency::cpu4.inst 51732.876712                       # average overall mshr miss latency
system.l2.overall_avg_mshr_miss_latency::cpu4.data 51486.130374                       # average overall mshr miss latency
system.l2.overall_avg_mshr_miss_latency::cpu5.inst        51250                       # average overall mshr miss latency
system.l2.overall_avg_mshr_miss_latency::cpu5.data 51407.500000                       # average overall mshr miss latency
system.l2.overall_avg_mshr_miss_latency::cpu6.inst 51210.526316                       # average overall mshr miss latency
system.l2.overall_avg_mshr_miss_latency::cpu6.data 51439.393939                       # average overall mshr miss latency
system.l2.overall_avg_mshr_miss_latency::cpu7.inst 51137.614679                       # average overall mshr miss latency
system.l2.overall_avg_mshr_miss_latency::cpu7.data 51527.322404                       # average overall mshr miss latency
system.l2.overall_avg_mshr_miss_latency::total 51377.085797                       # average overall mshr miss latency
system.membus.snoop_filter.tot_requests         26051                       # Total number of requests made to the snoop filter.
system.membus.snoop_filter.hit_single_requests        17854                       # Number of requests hitting in the snoop filter with a single holder of the requested data.
system.membus.snoop_filter.hit_multi_requests            0                       # Number of requests hitting in the snoop filter with multiple (>1) holders of the requested data.
system.membus.snoop_filter.tot_snoops               0                       # Total number of snoops made to the snoop filter.
system.membus.snoop_filter.hit_single_snoops            0                       # Number of snoops hitting in the snoop filter with a single holder of the requested data.
system.membus.snoop_filter.hit_multi_snoops            0                       # Number of snoops hitting in the snoop filter with multiple (>1) holders of the requested data.
system.membus.pwrStateResidencyTicks::UNDEFINED  87537176000                       # Cumulative time (in ticks) in various power states
system.membus.trans_dist::ReadResp               3216                       # Transaction distribution
system.membus.trans_dist::WritebackDirty         1886                       # Transaction distribution
system.membus.trans_dist::CleanEvict             1347                       # Transaction distribution
system.membus.trans_dist::UpgradeReq             5845                       # Transaction distribution
system.membus.trans_dist::SCUpgradeReq           8475                       # Transaction distribution
system.membus.trans_dist::ReadExReq              4497                       # Transaction distribution
system.membus.trans_dist::ReadExResp             4395                       # Transaction distribution
system.membus.trans_dist::ReadSharedReq          3216                       # Transaction distribution
system.membus.pkt_count_system.l2.mem_side::system.physmem.port        32877                       # Packet count per connected master and slave (bytes)
system.membus.pkt_count::total                  32877                       # Packet count per connected master and slave (bytes)
system.membus.pkt_size_system.l2.mem_side::system.physmem.port       607808                       # Cumulative packet size per connected master and slave (bytes)
system.membus.pkt_size::total                  607808                       # Cumulative packet size per connected master and slave (bytes)
system.membus.snoops                            14416                       # Total snoops (count)
system.membus.snoopTraffic                          0                       # Total snoop traffic (bytes)
system.membus.snoop_fanout::samples             22714                       # Request fanout histogram
system.membus.snoop_fanout::mean                    0                       # Request fanout histogram
system.membus.snoop_fanout::stdev                   0                       # Request fanout histogram
system.membus.snoop_fanout::underflows              0      0.00%      0.00% # Request fanout histogram
system.membus.snoop_fanout::0                   22714    100.00%    100.00% # Request fanout histogram
system.membus.snoop_fanout::1                       0      0.00%    100.00% # Request fanout histogram
system.membus.snoop_fanout::overflows               0      0.00%    100.00% # Request fanout histogram
system.membus.snoop_fanout::min_value               0                       # Request fanout histogram
system.membus.snoop_fanout::max_value               0                       # Request fanout histogram
system.membus.snoop_fanout::total               22714                       # Request fanout histogram
system.membus.reqLayer0.occupancy            23183632                       # Layer occupancy (ticks)
system.membus.reqLayer0.utilization               0.0                       # Layer utilization (%)
system.membus.respLayer1.occupancy           38055000                       # Layer occupancy (ticks)
system.membus.respLayer1.utilization              0.0                       # Layer utilization (%)
system.tol2bus.snoop_filter.tot_requests      1668692                       # Total number of requests made to the snoop filter.
system.tol2bus.snoop_filter.hit_single_requests       445109                       # Number of requests hitting in the snoop filter with a single holder of the requested data.
system.tol2bus.snoop_filter.hit_multi_requests       901471                       # Number of requests hitting in the snoop filter with multiple (>1) holders of the requested data.
system.tol2bus.snoop_filter.tot_snoops           1080                       # Total number of snoops made to the snoop filter.
system.tol2bus.snoop_filter.hit_single_snoops          933                       # Number of snoops hitting in the snoop filter with a single holder of the requested data.
system.tol2bus.snoop_filter.hit_multi_snoops          147                       # Number of snoops hitting in the snoop filter with multiple (>1) holders of the requested data.
system.tol2bus.pwrStateResidencyTicks::UNDEFINED  87537176000                       # Cumulative time (in ticks) in various power states
system.tol2bus.trans_dist::ReadResp            822790                       # Transaction distribution
system.tol2bus.trans_dist::ReadRespWithInvalidate           25                       # Transaction distribution
system.tol2bus.trans_dist::WritebackDirty        16348                       # Transaction distribution
system.tol2bus.trans_dist::WritebackClean       785442                       # Transaction distribution
system.tol2bus.trans_dist::CleanEvict            9829                       # Transaction distribution
system.tol2bus.trans_dist::UpgradeReq            7302                       # Transaction distribution
system.tol2bus.trans_dist::SCUpgradeReq          9864                       # Transaction distribution
system.tol2bus.trans_dist::UpgradeResp          17166                       # Transaction distribution
system.tol2bus.trans_dist::SCUpgradeFailReq          293                       # Transaction distribution
system.tol2bus.trans_dist::UpgradeFailResp          293                       # Transaction distribution
system.tol2bus.trans_dist::ReadExReq            21060                       # Transaction distribution
system.tol2bus.trans_dist::ReadExResp           21060                       # Transaction distribution
system.tol2bus.trans_dist::ReadCleanReq        787510                       # Transaction distribution
system.tol2bus.trans_dist::ReadSharedReq        35305                       # Transaction distribution
system.tol2bus.pkt_count_system.cpu0.icache.mem_side::system.l2.cpu_side       913031                       # Packet count per connected master and slave (bytes)
system.tol2bus.pkt_count_system.cpu0.dcache.mem_side::system.l2.cpu_side        30837                       # Packet count per connected master and slave (bytes)
system.tol2bus.pkt_count_system.cpu1.icache.mem_side::system.l2.cpu_side       217324                       # Packet count per connected master and slave (bytes)
system.tol2bus.pkt_count_system.cpu1.dcache.mem_side::system.l2.cpu_side        16965                       # Packet count per connected master and slave (bytes)
system.tol2bus.pkt_count_system.cpu2.icache.mem_side::system.l2.cpu_side       217031                       # Packet count per connected master and slave (bytes)
system.tol2bus.pkt_count_system.cpu2.dcache.mem_side::system.l2.cpu_side         7769                       # Packet count per connected master and slave (bytes)
system.tol2bus.pkt_count_system.cpu3.icache.mem_side::system.l2.cpu_side       220581                       # Packet count per connected master and slave (bytes)
system.tol2bus.pkt_count_system.cpu3.dcache.mem_side::system.l2.cpu_side        16201                       # Packet count per connected master and slave (bytes)
system.tol2bus.pkt_count_system.cpu4.icache.mem_side::system.l2.cpu_side       217635                       # Packet count per connected master and slave (bytes)
system.tol2bus.pkt_count_system.cpu4.dcache.mem_side::system.l2.cpu_side        16978                       # Packet count per connected master and slave (bytes)
system.tol2bus.pkt_count_system.cpu5.icache.mem_side::system.l2.cpu_side       212438                       # Packet count per connected master and slave (bytes)
system.tol2bus.pkt_count_system.cpu5.dcache.mem_side::system.l2.cpu_side         9034                       # Packet count per connected master and slave (bytes)
system.tol2bus.pkt_count_system.cpu6.icache.mem_side::system.l2.cpu_side       219094                       # Packet count per connected master and slave (bytes)
system.tol2bus.pkt_count_system.cpu6.dcache.mem_side::system.l2.cpu_side        16545                       # Packet count per connected master and slave (bytes)
system.tol2bus.pkt_count_system.cpu7.icache.mem_side::system.l2.cpu_side       143303                       # Packet count per connected master and slave (bytes)
system.tol2bus.pkt_count_system.cpu7.dcache.mem_side::system.l2.cpu_side         7554                       # Packet count per connected master and slave (bytes)
system.tol2bus.pkt_count::total               2482320                       # Packet count per connected master and slave (bytes)
system.tol2bus.pkt_size_system.cpu0.icache.mem_side::system.l2.cpu_side     38950528                       # Cumulative packet size per connected master and slave (bytes)
system.tol2bus.pkt_size_system.cpu0.dcache.mem_side::system.l2.cpu_side      1078592                       # Cumulative packet size per connected master and slave (bytes)
system.tol2bus.pkt_size_system.cpu1.icache.mem_side::system.l2.cpu_side      9266816                       # Cumulative packet size per connected master and slave (bytes)
system.tol2bus.pkt_size_system.cpu1.dcache.mem_side::system.l2.cpu_side       211968                       # Cumulative packet size per connected master and slave (bytes)
system.tol2bus.pkt_size_system.cpu2.icache.mem_side::system.l2.cpu_side      9254528                       # Cumulative packet size per connected master and slave (bytes)
system.tol2bus.pkt_size_system.cpu2.dcache.mem_side::system.l2.cpu_side       176320                       # Cumulative packet size per connected master and slave (bytes)
system.tol2bus.pkt_size_system.cpu3.icache.mem_side::system.l2.cpu_side      9405824                       # Cumulative packet size per connected master and slave (bytes)
system.tol2bus.pkt_size_system.cpu3.dcache.mem_side::system.l2.cpu_side       196288                       # Cumulative packet size per connected master and slave (bytes)
system.tol2bus.pkt_size_system.cpu4.icache.mem_side::system.l2.cpu_side      9279872                       # Cumulative packet size per connected master and slave (bytes)
system.tol2bus.pkt_size_system.cpu4.dcache.mem_side::system.l2.cpu_side       222528                       # Cumulative packet size per connected master and slave (bytes)
system.tol2bus.pkt_size_system.cpu5.icache.mem_side::system.l2.cpu_side      9058560                       # Cumulative packet size per connected master and slave (bytes)
system.tol2bus.pkt_size_system.cpu5.dcache.mem_side::system.l2.cpu_side       188352                       # Cumulative packet size per connected master and slave (bytes)
system.tol2bus.pkt_size_system.cpu6.icache.mem_side::system.l2.cpu_side      9342400                       # Cumulative packet size per connected master and slave (bytes)
system.tol2bus.pkt_size_system.cpu6.dcache.mem_side::system.l2.cpu_side       206976                       # Cumulative packet size per connected master and slave (bytes)
system.tol2bus.pkt_size_system.cpu7.icache.mem_side::system.l2.cpu_side      6108800                       # Cumulative packet size per connected master and slave (bytes)
system.tol2bus.pkt_size_system.cpu7.dcache.mem_side::system.l2.cpu_side       135296                       # Cumulative packet size per connected master and slave (bytes)
system.tol2bus.pkt_size::total              103083648                       # Cumulative packet size per connected master and slave (bytes)
system.tol2bus.snoops                           51967                       # Total snoops (count)
system.tol2bus.snoopTraffic                   2257664                       # Total snoop traffic (bytes)
system.tol2bus.snoop_fanout::samples           865599                       # Request fanout histogram
system.tol2bus.snoop_fanout::mean            1.896968                       # Request fanout histogram
system.tol2bus.snoop_fanout::stdev           2.214708                       # Request fanout histogram
system.tol2bus.snoop_fanout::underflows             0      0.00%      0.00% # Request fanout histogram
system.tol2bus.snoop_fanout::0                 325323     37.58%     37.58% # Request fanout histogram
system.tol2bus.snoop_fanout::1                 141260     16.32%     53.90% # Request fanout histogram
system.tol2bus.snoop_fanout::2                 123941     14.32%     68.22% # Request fanout histogram
system.tol2bus.snoop_fanout::3                 121474     14.03%     82.25% # Request fanout histogram
system.tol2bus.snoop_fanout::4                  38948      4.50%     86.75% # Request fanout histogram
system.tol2bus.snoop_fanout::5                  35780      4.13%     90.89% # Request fanout histogram
system.tol2bus.snoop_fanout::6                  38203      4.41%     95.30% # Request fanout histogram
system.tol2bus.snoop_fanout::7                  29180      3.37%     98.67% # Request fanout histogram
system.tol2bus.snoop_fanout::8                   2057      0.24%     98.91% # Request fanout histogram
system.tol2bus.snoop_fanout::9                   2560      0.30%     99.21% # Request fanout histogram
system.tol2bus.snoop_fanout::10                  2133      0.25%     99.45% # Request fanout histogram
system.tol2bus.snoop_fanout::11                  1607      0.19%     99.64% # Request fanout histogram
system.tol2bus.snoop_fanout::12                   896      0.10%     99.74% # Request fanout histogram
system.tol2bus.snoop_fanout::13                   864      0.10%     99.84% # Request fanout histogram
system.tol2bus.snoop_fanout::14                   802      0.09%     99.93% # Request fanout histogram
system.tol2bus.snoop_fanout::15                   571      0.07%    100.00% # Request fanout histogram
system.tol2bus.snoop_fanout::16                     0      0.00%    100.00% # Request fanout histogram
system.tol2bus.snoop_fanout::overflows              0      0.00%    100.00% # Request fanout histogram
system.tol2bus.snoop_fanout::min_value              0                       # Request fanout histogram
system.tol2bus.snoop_fanout::max_value             15                       # Request fanout histogram
system.tol2bus.snoop_fanout::total             865599                       # Request fanout histogram
system.tol2bus.reqLayer0.occupancy         1634305389                       # Layer occupancy (ticks)
system.tol2bus.reqLayer0.utilization              1.9                       # Layer utilization (%)
system.tol2bus.respLayer0.occupancy         456809068                       # Layer occupancy (ticks)
system.tol2bus.respLayer0.utilization             0.5                       # Layer utilization (%)
system.tol2bus.respLayer1.occupancy          17043887                       # Layer occupancy (ticks)
system.tol2bus.respLayer1.utilization             0.0                       # Layer utilization (%)
system.tol2bus.respLayer4.occupancy         108931110                       # Layer occupancy (ticks)
system.tol2bus.respLayer4.utilization             0.1                       # Layer utilization (%)
system.tol2bus.respLayer5.occupancy          14499387                       # Layer occupancy (ticks)
system.tol2bus.respLayer5.utilization             0.0                       # Layer utilization (%)
system.tol2bus.respLayer8.occupancy         108821523                       # Layer occupancy (ticks)
system.tol2bus.respLayer8.utilization             0.1                       # Layer utilization (%)
system.tol2bus.respLayer9.occupancy           5447868                       # Layer occupancy (ticks)
system.tol2bus.respLayer9.utilization             0.0                       # Layer utilization (%)
system.tol2bus.respLayer12.occupancy        110532159                       # Layer occupancy (ticks)
system.tol2bus.respLayer12.utilization            0.1                       # Layer utilization (%)
system.tol2bus.respLayer13.occupancy         13928895                       # Layer occupancy (ticks)
system.tol2bus.respLayer13.utilization            0.0                       # Layer utilization (%)
system.tol2bus.respLayer16.occupancy        109085221                       # Layer occupancy (ticks)
system.tol2bus.respLayer16.utilization            0.1                       # Layer utilization (%)
system.tol2bus.respLayer17.occupancy         14710908                       # Layer occupancy (ticks)
system.tol2bus.respLayer17.utilization            0.0                       # Layer utilization (%)
system.tol2bus.respLayer20.occupancy        106544075                       # Layer occupancy (ticks)
system.tol2bus.respLayer20.utilization            0.1                       # Layer utilization (%)
system.tol2bus.respLayer21.occupancy          6838374                       # Layer occupancy (ticks)
system.tol2bus.respLayer21.utilization            0.0                       # Layer utilization (%)
system.tol2bus.respLayer24.occupancy        109823177                       # Layer occupancy (ticks)
system.tol2bus.respLayer24.utilization            0.1                       # Layer utilization (%)
system.tol2bus.respLayer25.occupancy         14625900                       # Layer occupancy (ticks)
system.tol2bus.respLayer25.utilization            0.0                       # Layer utilization (%)
system.tol2bus.respLayer28.occupancy         71925179                       # Layer occupancy (ticks)
system.tol2bus.respLayer28.utilization            0.1                       # Layer utilization (%)
system.tol2bus.respLayer29.occupancy          6838901                       # Layer occupancy (ticks)
system.tol2bus.respLayer29.utilization            0.0                       # Layer utilization (%)

---------- End Simulation Statistics   ----------
