
---------- Begin Simulation Statistics ----------
sim_seconds                                  0.001985                       # Number of seconds simulated
sim_ticks                                  1985112000                       # Number of ticks simulated
final_tick                                 1985112000                       # Number of ticks from beginning of simulation (restored from checkpoints and never reset)
sim_freq                                 1000000000000                       # Frequency of simulated ticks
host_inst_rate                                 195166                       # Simulator instruction rate (inst/s)
host_op_rate                                   220686                       # Simulator op (including micro ops) rate (op/s)
host_tick_rate                              211649800                       # Simulator tick rate (ticks/s)
host_mem_usage                                 717704                       # Number of bytes of host memory used
host_seconds                                     9.38                       # Real time elapsed on the host
sim_insts                                     1830503                       # Number of instructions simulated
sim_ops                                       2069864                       # Number of ops (including micro ops) simulated
system.voltage_domain.voltage                       1                       # Voltage in Volts
system.clk_domain.clock                          1000                       # Clock period in ticks
system.physmem.pwrStateResidencyTicks::UNDEFINED   1985112000                       # Cumulative time (in ticks) in various power states
system.physmem.bytes_read::cpu0.inst            45440                       # Number of bytes read from this memory
system.physmem.bytes_read::cpu0.data            27776                       # Number of bytes read from this memory
system.physmem.bytes_read::total                73216                       # Number of bytes read from this memory
system.physmem.bytes_inst_read::cpu0.inst        45440                       # Number of instructions bytes read from this memory
system.physmem.bytes_inst_read::total           45440                       # Number of instructions bytes read from this memory
system.physmem.num_reads::cpu0.inst               710                       # Number of read requests responded to by this memory
system.physmem.num_reads::cpu0.data               434                       # Number of read requests responded to by this memory
system.physmem.num_reads::total                  1144                       # Number of read requests responded to by this memory
system.physmem.bw_read::cpu0.inst            22890396                       # Total read bandwidth from this memory (bytes/s)
system.physmem.bw_read::cpu0.data            13992158                       # Total read bandwidth from this memory (bytes/s)
system.physmem.bw_read::total                36882554                       # Total read bandwidth from this memory (bytes/s)
system.physmem.bw_inst_read::cpu0.inst       22890396                       # Instruction read bandwidth from this memory (bytes/s)
system.physmem.bw_inst_read::total           22890396                       # Instruction read bandwidth from this memory (bytes/s)
system.physmem.bw_total::cpu0.inst           22890396                       # Total bandwidth to/from this memory (bytes/s)
system.physmem.bw_total::cpu0.data           13992158                       # Total bandwidth to/from this memory (bytes/s)
system.physmem.bw_total::total               36882554                       # Total bandwidth to/from this memory (bytes/s)
system.pwrStateResidencyTicks::UNDEFINED   1985112000                       # Cumulative time (in ticks) in various power states
system.cpu0.branchPred.lookups                 418197                       # Number of BP lookups
system.cpu0.branchPred.condPredicted           315762                       # Number of conditional branches predicted
system.cpu0.branchPred.condIncorrect            10220                       # Number of conditional branches incorrect
system.cpu0.branchPred.BTBLookups              209439                       # Number of BTB lookups
system.cpu0.branchPred.BTBHits                 191540                       # Number of BTB hits
system.cpu0.branchPred.BTBCorrect                   0                       # Number of correct BTB predictions (this stat may not work properly.
system.cpu0.branchPred.BTBHitPct            91.453836                       # BTB Hit Percentage
system.cpu0.branchPred.usedRAS                  30209                       # Number of times the RAS was used to get a target.
system.cpu0.branchPred.RASInCorrect               283                       # Number of incorrect RAS predictions.
system.cpu0.branchPred.indirectLookups          12790                       # Number of indirect predictor lookups.
system.cpu0.branchPred.indirectHits             12383                       # Number of indirect target hits.
system.cpu0.branchPred.indirectMisses             407                       # Number of indirect misses.
system.cpu0.branchPredindirectMispredicted          897                       # Number of mispredicted indirect branches.
system.cpu0.dstage2_mmu.stage2_tlb.walker.pwrStateResidencyTicks::UNDEFINED   1985112000                       # Cumulative time (in ticks) in various power states
system.cpu0.dstage2_mmu.stage2_tlb.walker.walks            0                       # Table walker walks requested
system.cpu0.dstage2_mmu.stage2_tlb.walker.walkRequestOrigin_Requested::Data            0                       # Table walker requests started/completed, data/inst
system.cpu0.dstage2_mmu.stage2_tlb.walker.walkRequestOrigin_Requested::Inst            0                       # Table walker requests started/completed, data/inst
system.cpu0.dstage2_mmu.stage2_tlb.walker.walkRequestOrigin_Requested::total            0                       # Table walker requests started/completed, data/inst
system.cpu0.dstage2_mmu.stage2_tlb.walker.walkRequestOrigin_Completed::Data            0                       # Table walker requests started/completed, data/inst
system.cpu0.dstage2_mmu.stage2_tlb.walker.walkRequestOrigin_Completed::Inst            0                       # Table walker requests started/completed, data/inst
system.cpu0.dstage2_mmu.stage2_tlb.walker.walkRequestOrigin_Completed::total            0                       # Table walker requests started/completed, data/inst
system.cpu0.dstage2_mmu.stage2_tlb.walker.walkRequestOrigin::total            0                       # Table walker requests started/completed, data/inst
system.cpu0.dstage2_mmu.stage2_tlb.inst_hits            0                       # ITB inst hits
system.cpu0.dstage2_mmu.stage2_tlb.inst_misses            0                       # ITB inst misses
system.cpu0.dstage2_mmu.stage2_tlb.read_hits            0                       # DTB read hits
system.cpu0.dstage2_mmu.stage2_tlb.read_misses            0                       # DTB read misses
system.cpu0.dstage2_mmu.stage2_tlb.write_hits            0                       # DTB write hits
system.cpu0.dstage2_mmu.stage2_tlb.write_misses            0                       # DTB write misses
system.cpu0.dstage2_mmu.stage2_tlb.flush_tlb            0                       # Number of times complete TLB was flushed
system.cpu0.dstage2_mmu.stage2_tlb.flush_tlb_mva            0                       # Number of times TLB was flushed by MVA
system.cpu0.dstage2_mmu.stage2_tlb.flush_tlb_mva_asid            0                       # Number of times TLB was flushed by MVA & ASID
system.cpu0.dstage2_mmu.stage2_tlb.flush_tlb_asid            0                       # Number of times TLB was flushed by ASID
system.cpu0.dstage2_mmu.stage2_tlb.flush_entries            0                       # Number of entries that have been flushed from TLB
system.cpu0.dstage2_mmu.stage2_tlb.align_faults            0                       # Number of TLB faults due to alignment restrictions
system.cpu0.dstage2_mmu.stage2_tlb.prefetch_faults            0                       # Number of TLB faults due to prefetch
system.cpu0.dstage2_mmu.stage2_tlb.domain_faults            0                       # Number of TLB faults due to domain restrictions
system.cpu0.dstage2_mmu.stage2_tlb.perms_faults            0                       # Number of TLB faults due to permissions restrictions
system.cpu0.dstage2_mmu.stage2_tlb.read_accesses            0                       # DTB read accesses
system.cpu0.dstage2_mmu.stage2_tlb.write_accesses            0                       # DTB write accesses
system.cpu0.dstage2_mmu.stage2_tlb.inst_accesses            0                       # ITB inst accesses
system.cpu0.dstage2_mmu.stage2_tlb.hits             0                       # DTB hits
system.cpu0.dstage2_mmu.stage2_tlb.misses            0                       # DTB misses
system.cpu0.dstage2_mmu.stage2_tlb.accesses            0                       # DTB accesses
system.cpu0.dtb.walker.pwrStateResidencyTicks::UNDEFINED   1985112000                       # Cumulative time (in ticks) in various power states
system.cpu0.dtb.walker.walks                        0                       # Table walker walks requested
system.cpu0.dtb.walker.walkRequestOrigin_Requested::Data            0                       # Table walker requests started/completed, data/inst
system.cpu0.dtb.walker.walkRequestOrigin_Requested::Inst            0                       # Table walker requests started/completed, data/inst
system.cpu0.dtb.walker.walkRequestOrigin_Requested::total            0                       # Table walker requests started/completed, data/inst
system.cpu0.dtb.walker.walkRequestOrigin_Completed::Data            0                       # Table walker requests started/completed, data/inst
system.cpu0.dtb.walker.walkRequestOrigin_Completed::Inst            0                       # Table walker requests started/completed, data/inst
system.cpu0.dtb.walker.walkRequestOrigin_Completed::total            0                       # Table walker requests started/completed, data/inst
system.cpu0.dtb.walker.walkRequestOrigin::total            0                       # Table walker requests started/completed, data/inst
system.cpu0.dtb.inst_hits                           0                       # ITB inst hits
system.cpu0.dtb.inst_misses                         0                       # ITB inst misses
system.cpu0.dtb.read_hits                           0                       # DTB read hits
system.cpu0.dtb.read_misses                         0                       # DTB read misses
system.cpu0.dtb.write_hits                          0                       # DTB write hits
system.cpu0.dtb.write_misses                        0                       # DTB write misses
system.cpu0.dtb.flush_tlb                           0                       # Number of times complete TLB was flushed
system.cpu0.dtb.flush_tlb_mva                       0                       # Number of times TLB was flushed by MVA
system.cpu0.dtb.flush_tlb_mva_asid                  0                       # Number of times TLB was flushed by MVA & ASID
system.cpu0.dtb.flush_tlb_asid                      0                       # Number of times TLB was flushed by ASID
system.cpu0.dtb.flush_entries                       0                       # Number of entries that have been flushed from TLB
system.cpu0.dtb.align_faults                        0                       # Number of TLB faults due to alignment restrictions
system.cpu0.dtb.prefetch_faults                     0                       # Number of TLB faults due to prefetch
system.cpu0.dtb.domain_faults                       0                       # Number of TLB faults due to domain restrictions
system.cpu0.dtb.perms_faults                        0                       # Number of TLB faults due to permissions restrictions
system.cpu0.dtb.read_accesses                       0                       # DTB read accesses
system.cpu0.dtb.write_accesses                      0                       # DTB write accesses
system.cpu0.dtb.inst_accesses                       0                       # ITB inst accesses
system.cpu0.dtb.hits                                0                       # DTB hits
system.cpu0.dtb.misses                              0                       # DTB misses
system.cpu0.dtb.accesses                            0                       # DTB accesses
system.cpu0.istage2_mmu.stage2_tlb.walker.pwrStateResidencyTicks::UNDEFINED   1985112000                       # Cumulative time (in ticks) in various power states
system.cpu0.istage2_mmu.stage2_tlb.walker.walks            0                       # Table walker walks requested
system.cpu0.istage2_mmu.stage2_tlb.walker.walkRequestOrigin_Requested::Data            0                       # Table walker requests started/completed, data/inst
system.cpu0.istage2_mmu.stage2_tlb.walker.walkRequestOrigin_Requested::Inst            0                       # Table walker requests started/completed, data/inst
system.cpu0.istage2_mmu.stage2_tlb.walker.walkRequestOrigin_Requested::total            0                       # Table walker requests started/completed, data/inst
system.cpu0.istage2_mmu.stage2_tlb.walker.walkRequestOrigin_Completed::Data            0                       # Table walker requests started/completed, data/inst
system.cpu0.istage2_mmu.stage2_tlb.walker.walkRequestOrigin_Completed::Inst            0                       # Table walker requests started/completed, data/inst
system.cpu0.istage2_mmu.stage2_tlb.walker.walkRequestOrigin_Completed::total            0                       # Table walker requests started/completed, data/inst
system.cpu0.istage2_mmu.stage2_tlb.walker.walkRequestOrigin::total            0                       # Table walker requests started/completed, data/inst
system.cpu0.istage2_mmu.stage2_tlb.inst_hits            0                       # ITB inst hits
system.cpu0.istage2_mmu.stage2_tlb.inst_misses            0                       # ITB inst misses
system.cpu0.istage2_mmu.stage2_tlb.read_hits            0                       # DTB read hits
system.cpu0.istage2_mmu.stage2_tlb.read_misses            0                       # DTB read misses
system.cpu0.istage2_mmu.stage2_tlb.write_hits            0                       # DTB write hits
system.cpu0.istage2_mmu.stage2_tlb.write_misses            0                       # DTB write misses
system.cpu0.istage2_mmu.stage2_tlb.flush_tlb            0                       # Number of times complete TLB was flushed
system.cpu0.istage2_mmu.stage2_tlb.flush_tlb_mva            0                       # Number of times TLB was flushed by MVA
system.cpu0.istage2_mmu.stage2_tlb.flush_tlb_mva_asid            0                       # Number of times TLB was flushed by MVA & ASID
system.cpu0.istage2_mmu.stage2_tlb.flush_tlb_asid            0                       # Number of times TLB was flushed by ASID
system.cpu0.istage2_mmu.stage2_tlb.flush_entries            0                       # Number of entries that have been flushed from TLB
system.cpu0.istage2_mmu.stage2_tlb.align_faults            0                       # Number of TLB faults due to alignment restrictions
system.cpu0.istage2_mmu.stage2_tlb.prefetch_faults            0                       # Number of TLB faults due to prefetch
system.cpu0.istage2_mmu.stage2_tlb.domain_faults            0                       # Number of TLB faults due to domain restrictions
system.cpu0.istage2_mmu.stage2_tlb.perms_faults            0                       # Number of TLB faults due to permissions restrictions
system.cpu0.istage2_mmu.stage2_tlb.read_accesses            0                       # DTB read accesses
system.cpu0.istage2_mmu.stage2_tlb.write_accesses            0                       # DTB write accesses
system.cpu0.istage2_mmu.stage2_tlb.inst_accesses            0                       # ITB inst accesses
system.cpu0.istage2_mmu.stage2_tlb.hits             0                       # DTB hits
system.cpu0.istage2_mmu.stage2_tlb.misses            0                       # DTB misses
system.cpu0.istage2_mmu.stage2_tlb.accesses            0                       # DTB accesses
system.cpu0.itb.walker.pwrStateResidencyTicks::UNDEFINED   1985112000                       # Cumulative time (in ticks) in various power states
system.cpu0.itb.walker.walks                        0                       # Table walker walks requested
system.cpu0.itb.walker.walkRequestOrigin_Requested::Data            0                       # Table walker requests started/completed, data/inst
system.cpu0.itb.walker.walkRequestOrigin_Requested::Inst            0                       # Table walker requests started/completed, data/inst
system.cpu0.itb.walker.walkRequestOrigin_Requested::total            0                       # Table walker requests started/completed, data/inst
system.cpu0.itb.walker.walkRequestOrigin_Completed::Data            0                       # Table walker requests started/completed, data/inst
system.cpu0.itb.walker.walkRequestOrigin_Completed::Inst            0                       # Table walker requests started/completed, data/inst
system.cpu0.itb.walker.walkRequestOrigin_Completed::total            0                       # Table walker requests started/completed, data/inst
system.cpu0.itb.walker.walkRequestOrigin::total            0                       # Table walker requests started/completed, data/inst
system.cpu0.itb.inst_hits                           0                       # ITB inst hits
system.cpu0.itb.inst_misses                         0                       # ITB inst misses
system.cpu0.itb.read_hits                           0                       # DTB read hits
system.cpu0.itb.read_misses                         0                       # DTB read misses
system.cpu0.itb.write_hits                          0                       # DTB write hits
system.cpu0.itb.write_misses                        0                       # DTB write misses
system.cpu0.itb.flush_tlb                           0                       # Number of times complete TLB was flushed
system.cpu0.itb.flush_tlb_mva                       0                       # Number of times TLB was flushed by MVA
system.cpu0.itb.flush_tlb_mva_asid                  0                       # Number of times TLB was flushed by MVA & ASID
system.cpu0.itb.flush_tlb_asid                      0                       # Number of times TLB was flushed by ASID
system.cpu0.itb.flush_entries                       0                       # Number of entries that have been flushed from TLB
system.cpu0.itb.align_faults                        0                       # Number of TLB faults due to alignment restrictions
system.cpu0.itb.prefetch_faults                     0                       # Number of TLB faults due to prefetch
system.cpu0.itb.domain_faults                       0                       # Number of TLB faults due to domain restrictions
system.cpu0.itb.perms_faults                        0                       # Number of TLB faults due to permissions restrictions
system.cpu0.itb.read_accesses                       0                       # DTB read accesses
system.cpu0.itb.write_accesses                      0                       # DTB write accesses
system.cpu0.itb.inst_accesses                       0                       # ITB inst accesses
system.cpu0.itb.hits                                0                       # DTB hits
system.cpu0.itb.misses                              0                       # DTB misses
system.cpu0.itb.accesses                            0                       # DTB accesses
system.cpu0.workload.num_syscalls                  17                       # Number of system calls
system.cpu0.pwrStateResidencyTicks::ON     1985112000                       # Cumulative time (in ticks) in various power states
system.cpu0.numCycles                         1985113                       # number of cpu cycles simulated
system.cpu0.numWorkItemsStarted                     0                       # number of work items this cpu started
system.cpu0.numWorkItemsCompleted                   0                       # number of work items this cpu completed
system.cpu0.fetch.icacheStallCycles            632374                       # Number of cycles fetch is stalled on an Icache miss
system.cpu0.fetch.Insts                       2116379                       # Number of instructions fetch has processed
system.cpu0.fetch.Branches                     418197                       # Number of branches that fetch encountered
system.cpu0.fetch.predictedBranches            234132                       # Number of branches that fetch has predicted taken
system.cpu0.fetch.Cycles                      1320897                       # Number of cycles fetch has run and was not squashing or blocked
system.cpu0.fetch.SquashCycles                  20602                       # Number of cycles fetch has spent squashing
system.cpu0.fetch.MiscStallCycles                   1                       # Number of cycles fetch has spent waiting on interrupts, or bad addresses, or out of MSHRs
system.cpu0.fetch.PendingTrapStallCycles          177                       # Number of stall cycles due to pending traps
system.cpu0.fetch.CacheLines                   289973                       # Number of cache lines fetched
system.cpu0.fetch.IcacheSquashes                 1765                       # Number of outstanding Icache misses that were squashed
system.cpu0.fetch.rateDist::samples           1963750                       # Number of instructions fetched each cycle (Total)
system.cpu0.fetch.rateDist::mean             1.217792                       # Number of instructions fetched each cycle (Total)
system.cpu0.fetch.rateDist::stdev            0.936507                       # Number of instructions fetched each cycle (Total)
system.cpu0.fetch.rateDist::underflows              0      0.00%      0.00% # Number of instructions fetched each cycle (Total)
system.cpu0.fetch.rateDist::0                  693877     35.33%     35.33% # Number of instructions fetched each cycle (Total)
system.cpu0.fetch.rateDist::1                  148306      7.55%     42.89% # Number of instructions fetched each cycle (Total)
system.cpu0.fetch.rateDist::2                 1121567     57.11%    100.00% # Number of instructions fetched each cycle (Total)
system.cpu0.fetch.rateDist::overflows               0      0.00%    100.00% # Number of instructions fetched each cycle (Total)
system.cpu0.fetch.rateDist::min_value               0                       # Number of instructions fetched each cycle (Total)
system.cpu0.fetch.rateDist::max_value               2                       # Number of instructions fetched each cycle (Total)
system.cpu0.fetch.rateDist::total             1963750                       # Number of instructions fetched each cycle (Total)
system.cpu0.fetch.branchRate                 0.210667                       # Number of branch fetches per cycle
system.cpu0.fetch.rate                       1.066125                       # Number of inst fetches per cycle
system.cpu0.decode.IdleCycles                  617591                       # Number of cycles decode is idle
system.cpu0.decode.BlockedCycles               101616                       # Number of cycles decode is blocked
system.cpu0.decode.RunCycles                  1170324                       # Number of cycles decode is running
system.cpu0.decode.UnblockCycles                64908                       # Number of cycles decode is unblocking
system.cpu0.decode.SquashCycles                  9311                       # Number of cycles decode is squashing
system.cpu0.decode.BranchResolved               64931                       # Number of times decode resolved a branch
system.cpu0.decode.BranchMispred                 1008                       # Number of times decode detected a branch misprediction
system.cpu0.decode.DecodedInsts               2341789                       # Number of instructions handled by decode
system.cpu0.decode.SquashedInsts                 1785                       # Number of squashed instructions handled by decode
system.cpu0.rename.SquashCycles                  9311                       # Number of cycles rename is squashing
system.cpu0.rename.IdleCycles                  637058                       # Number of cycles rename is idle
system.cpu0.rename.BlockCycles                  26256                       # Number of cycles rename is blocking
system.cpu0.rename.serializeStallCycles         23598                       # count of cycles rename stalled for serializing inst
system.cpu0.rename.RunCycles                  1213969                       # Number of cycles rename is running
system.cpu0.rename.UnblockCycles                53558                       # Number of cycles rename is unblocking
system.cpu0.rename.RenamedInsts               2328183                       # Number of instructions processed by rename
system.cpu0.rename.IQFullEvents                 39862                       # Number of times rename has blocked due to IQ full
system.cpu0.rename.LQFullEvents                    78                       # Number of times rename has blocked due to LQ full
system.cpu0.rename.SQFullEvents                   263                       # Number of times rename has blocked due to SQ full
system.cpu0.rename.RenamedOperands            2676934                       # Number of destination operands rename has renamed
system.cpu0.rename.RenameLookups             10394104                       # Number of register rename lookups that rename has made
system.cpu0.rename.int_rename_lookups         2724214                       # Number of integer rename lookups
system.cpu0.rename.fp_rename_lookups               16                       # Number of floating rename lookups
system.cpu0.rename.CommittedMaps              2356928                       # Number of HB maps that are committed
system.cpu0.rename.UndoneMaps                  319995                       # Number of HB maps that are undone due to squashing
system.cpu0.rename.serializingInsts               816                       # count of serializing insts renamed
system.cpu0.rename.tempSerializingInsts           178                       # count of temporary serializing insts renamed
system.cpu0.rename.skidInsts                    56683                       # count of insts added to the skid buffer
system.cpu0.memDep0.insertedLoads              362017                       # Number of loads inserted to the mem dependence unit.
system.cpu0.memDep0.insertedStores             260975                       # Number of stores inserted to the mem dependence unit.
system.cpu0.memDep0.conflictingLoads            23166                       # Number of conflicting loads.
system.cpu0.memDep0.conflictingStores            6306                       # Number of conflicting stores.
system.cpu0.iq.iqInstsAdded                   2302174                       # Number of instructions added to the IQ (excludes non-spec)
system.cpu0.iq.iqNonSpecInstsAdded                284                       # Number of non-speculative instructions added to the IQ
system.cpu0.iq.iqInstsIssued                  2113190                       # Number of instructions issued
system.cpu0.iq.iqSquashedInstsIssued            28478                       # Number of squashed instructions issued
system.cpu0.iq.iqSquashedInstsExamined         232589                       # Number of squashed instructions iterated over during squash; mainly for profiling
system.cpu0.iq.iqSquashedOperandsExamined       861710                       # Number of squashed operands that are examined and possibly removed from graph
system.cpu0.iq.iqSquashedNonSpecRemoved            45                       # Number of squashed non-spec instructions that were removed
system.cpu0.iq.issued_per_cycle::samples      1963750                       # Number of insts issued each cycle
system.cpu0.iq.issued_per_cycle::mean        1.076099                       # Number of insts issued each cycle
system.cpu0.iq.issued_per_cycle::stdev       0.654300                       # Number of insts issued each cycle
system.cpu0.iq.issued_per_cycle::underflows            0      0.00%      0.00% # Number of insts issued each cycle
system.cpu0.iq.issued_per_cycle::0             351315     17.89%     17.89% # Number of insts issued each cycle
system.cpu0.iq.issued_per_cycle::1            1111680     56.61%     74.50% # Number of insts issued each cycle
system.cpu0.iq.issued_per_cycle::2             500755     25.50%    100.00% # Number of insts issued each cycle
system.cpu0.iq.issued_per_cycle::overflows            0      0.00%    100.00% # Number of insts issued each cycle
system.cpu0.iq.issued_per_cycle::min_value            0                       # Number of insts issued each cycle
system.cpu0.iq.issued_per_cycle::max_value            2                       # Number of insts issued each cycle
system.cpu0.iq.issued_per_cycle::total        1963750                       # Number of insts issued each cycle
system.cpu0.iq.fu_full::No_OpClass                  0      0.00%      0.00% # attempts to use FU when none available
system.cpu0.iq.fu_full::IntAlu                1046172     88.60%     88.60% # attempts to use FU when none available
system.cpu0.iq.fu_full::IntMult                     0      0.00%     88.60% # attempts to use FU when none available
system.cpu0.iq.fu_full::IntDiv                      0      0.00%     88.60% # attempts to use FU when none available
system.cpu0.iq.fu_full::FloatAdd                    0      0.00%     88.60% # attempts to use FU when none available
system.cpu0.iq.fu_full::FloatCmp                    0      0.00%     88.60% # attempts to use FU when none available
system.cpu0.iq.fu_full::FloatCvt                    0      0.00%     88.60% # attempts to use FU when none available
system.cpu0.iq.fu_full::FloatMult                   0      0.00%     88.60% # attempts to use FU when none available
system.cpu0.iq.fu_full::FloatMultAcc                0      0.00%     88.60% # attempts to use FU when none available
system.cpu0.iq.fu_full::FloatDiv                    0      0.00%     88.60% # attempts to use FU when none available
system.cpu0.iq.fu_full::FloatMisc                   0      0.00%     88.60% # attempts to use FU when none available
system.cpu0.iq.fu_full::FloatSqrt                   0      0.00%     88.60% # attempts to use FU when none available
system.cpu0.iq.fu_full::SimdAdd                     0      0.00%     88.60% # attempts to use FU when none available
system.cpu0.iq.fu_full::SimdAddAcc                  0      0.00%     88.60% # attempts to use FU when none available
system.cpu0.iq.fu_full::SimdAlu                     0      0.00%     88.60% # attempts to use FU when none available
system.cpu0.iq.fu_full::SimdCmp                     0      0.00%     88.60% # attempts to use FU when none available
system.cpu0.iq.fu_full::SimdCvt                     0      0.00%     88.60% # attempts to use FU when none available
system.cpu0.iq.fu_full::SimdMisc                    0      0.00%     88.60% # attempts to use FU when none available
system.cpu0.iq.fu_full::SimdMult                    0      0.00%     88.60% # attempts to use FU when none available
system.cpu0.iq.fu_full::SimdMultAcc                 0      0.00%     88.60% # attempts to use FU when none available
system.cpu0.iq.fu_full::SimdShift                   0      0.00%     88.60% # attempts to use FU when none available
system.cpu0.iq.fu_full::SimdShiftAcc                0      0.00%     88.60% # attempts to use FU when none available
system.cpu0.iq.fu_full::SimdSqrt                    0      0.00%     88.60% # attempts to use FU when none available
system.cpu0.iq.fu_full::SimdFloatAdd                0      0.00%     88.60% # attempts to use FU when none available
system.cpu0.iq.fu_full::SimdFloatAlu                0      0.00%     88.60% # attempts to use FU when none available
system.cpu0.iq.fu_full::SimdFloatCmp                0      0.00%     88.60% # attempts to use FU when none available
system.cpu0.iq.fu_full::SimdFloatCvt                0      0.00%     88.60% # attempts to use FU when none available
system.cpu0.iq.fu_full::SimdFloatDiv                0      0.00%     88.60% # attempts to use FU when none available
system.cpu0.iq.fu_full::SimdFloatMisc               0      0.00%     88.60% # attempts to use FU when none available
system.cpu0.iq.fu_full::SimdFloatMult               0      0.00%     88.60% # attempts to use FU when none available
system.cpu0.iq.fu_full::SimdFloatMultAcc            0      0.00%     88.60% # attempts to use FU when none available
system.cpu0.iq.fu_full::SimdFloatSqrt               0      0.00%     88.60% # attempts to use FU when none available
system.cpu0.iq.fu_full::MemRead                 56985      4.83%     93.42% # attempts to use FU when none available
system.cpu0.iq.fu_full::MemWrite                77684      6.58%    100.00% # attempts to use FU when none available
system.cpu0.iq.fu_full::FloatMemRead                0      0.00%    100.00% # attempts to use FU when none available
system.cpu0.iq.fu_full::FloatMemWrite               0      0.00%    100.00% # attempts to use FU when none available
system.cpu0.iq.fu_full::IprAccess                   0      0.00%    100.00% # attempts to use FU when none available
system.cpu0.iq.fu_full::InstPrefetch                0      0.00%    100.00% # attempts to use FU when none available
system.cpu0.iq.FU_type_0::No_OpClass                0      0.00%      0.00% # Type of FU issued
system.cpu0.iq.FU_type_0::IntAlu              1509624     71.44%     71.44% # Type of FU issued
system.cpu0.iq.FU_type_0::IntMult                4322      0.20%     71.64% # Type of FU issued
system.cpu0.iq.FU_type_0::IntDiv                    0      0.00%     71.64% # Type of FU issued
system.cpu0.iq.FU_type_0::FloatAdd                  0      0.00%     71.64% # Type of FU issued
system.cpu0.iq.FU_type_0::FloatCmp                  0      0.00%     71.64% # Type of FU issued
system.cpu0.iq.FU_type_0::FloatCvt                  0      0.00%     71.64% # Type of FU issued
system.cpu0.iq.FU_type_0::FloatMult                 0      0.00%     71.64% # Type of FU issued
system.cpu0.iq.FU_type_0::FloatMultAcc              0      0.00%     71.64% # Type of FU issued
system.cpu0.iq.FU_type_0::FloatDiv                  0      0.00%     71.64% # Type of FU issued
system.cpu0.iq.FU_type_0::FloatMisc                 0      0.00%     71.64% # Type of FU issued
system.cpu0.iq.FU_type_0::FloatSqrt                 0      0.00%     71.64% # Type of FU issued
system.cpu0.iq.FU_type_0::SimdAdd                   0      0.00%     71.64% # Type of FU issued
system.cpu0.iq.FU_type_0::SimdAddAcc                0      0.00%     71.64% # Type of FU issued
system.cpu0.iq.FU_type_0::SimdAlu                   0      0.00%     71.64% # Type of FU issued
system.cpu0.iq.FU_type_0::SimdCmp                   0      0.00%     71.64% # Type of FU issued
system.cpu0.iq.FU_type_0::SimdCvt                   0      0.00%     71.64% # Type of FU issued
system.cpu0.iq.FU_type_0::SimdMisc                  0      0.00%     71.64% # Type of FU issued
system.cpu0.iq.FU_type_0::SimdMult                  0      0.00%     71.64% # Type of FU issued
system.cpu0.iq.FU_type_0::SimdMultAcc               0      0.00%     71.64% # Type of FU issued
system.cpu0.iq.FU_type_0::SimdShift                 0      0.00%     71.64% # Type of FU issued
system.cpu0.iq.FU_type_0::SimdShiftAcc              0      0.00%     71.64% # Type of FU issued
system.cpu0.iq.FU_type_0::SimdSqrt                  0      0.00%     71.64% # Type of FU issued
system.cpu0.iq.FU_type_0::SimdFloatAdd              0      0.00%     71.64% # Type of FU issued
system.cpu0.iq.FU_type_0::SimdFloatAlu              0      0.00%     71.64% # Type of FU issued
system.cpu0.iq.FU_type_0::SimdFloatCmp              0      0.00%     71.64% # Type of FU issued
system.cpu0.iq.FU_type_0::SimdFloatCvt              0      0.00%     71.64% # Type of FU issued
system.cpu0.iq.FU_type_0::SimdFloatDiv              0      0.00%     71.64% # Type of FU issued
system.cpu0.iq.FU_type_0::SimdFloatMisc           637      0.03%     71.67% # Type of FU issued
system.cpu0.iq.FU_type_0::SimdFloatMult             0      0.00%     71.67% # Type of FU issued
system.cpu0.iq.FU_type_0::SimdFloatMultAcc            0      0.00%     71.67% # Type of FU issued
system.cpu0.iq.FU_type_0::SimdFloatSqrt             0      0.00%     71.67% # Type of FU issued
system.cpu0.iq.FU_type_0::MemRead              347242     16.43%     88.10% # Type of FU issued
system.cpu0.iq.FU_type_0::MemWrite             251349     11.89%    100.00% # Type of FU issued
system.cpu0.iq.FU_type_0::FloatMemRead              0      0.00%    100.00% # Type of FU issued
system.cpu0.iq.FU_type_0::FloatMemWrite            16      0.00%    100.00% # Type of FU issued
system.cpu0.iq.FU_type_0::IprAccess                 0      0.00%    100.00% # Type of FU issued
system.cpu0.iq.FU_type_0::InstPrefetch              0      0.00%    100.00% # Type of FU issued
system.cpu0.iq.FU_type_0::total               2113190                       # Type of FU issued
system.cpu0.iq.rate                          1.064519                       # Inst issue rate
system.cpu0.iq.fu_busy_cnt                    1180841                       # FU busy when requested
system.cpu0.iq.fu_busy_rate                  0.558795                       # FU busy rate (busy events/executed inst)
system.cpu0.iq.int_inst_queue_reads           7399416                       # Number of integer instruction queue reads
system.cpu0.iq.int_inst_queue_writes          2535107                       # Number of integer instruction queue writes
system.cpu0.iq.int_inst_queue_wakeup_accesses      2100596                       # Number of integer instruction queue wakeup accesses
system.cpu0.iq.fp_inst_queue_reads                 32                       # Number of floating instruction queue reads
system.cpu0.iq.fp_inst_queue_writes                16                       # Number of floating instruction queue writes
system.cpu0.iq.fp_inst_queue_wakeup_accesses           16                       # Number of floating instruction queue wakeup accesses
system.cpu0.iq.int_alu_accesses               3294015                       # Number of integer alu accesses
system.cpu0.iq.fp_alu_accesses                     16                       # Number of floating point alu accesses
system.cpu0.iew.lsq.thread0.forwLoads           18765                       # Number of loads that had data forwarded from stores
system.cpu0.iew.lsq.thread0.invAddrLoads            0                       # Number of loads ignored due to an invalid address
system.cpu0.iew.lsq.thread0.squashedLoads        33765                       # Number of loads squashed
system.cpu0.iew.lsq.thread0.ignoredResponses            4                       # Number of memory responses ignored because the instruction is squashed
system.cpu0.iew.lsq.thread0.memOrderViolation           78                       # Number of memory ordering violations
system.cpu0.iew.lsq.thread0.squashedStores        13235                       # Number of stores squashed
system.cpu0.iew.lsq.thread0.invAddrSwpfs            0                       # Number of software prefetches ignored due to an invalid address
system.cpu0.iew.lsq.thread0.blockedLoads            0                       # Number of blocked loads due to partial load-store forwarding
system.cpu0.iew.lsq.thread0.rescheduledLoads         3911                       # Number of loads that were rescheduled
system.cpu0.iew.lsq.thread0.cacheBlocked            1                       # Number of times an access to memory failed due to the cache being blocked
system.cpu0.iew.iewIdleCycles                       0                       # Number of cycles IEW is idle
system.cpu0.iew.iewSquashCycles                  9311                       # Number of cycles IEW is squashing
system.cpu0.iew.iewBlockCycles                  25421                       # Number of cycles IEW is blocking
system.cpu0.iew.iewUnblockCycles                  789                       # Number of cycles IEW is unblocking
system.cpu0.iew.iewDispatchedInsts            2302482                       # Number of instructions dispatched to IQ
system.cpu0.iew.iewDispSquashedInsts             2176                       # Number of squashed instructions skipped by dispatch
system.cpu0.iew.iewDispLoadInsts               362017                       # Number of dispatched load instructions
system.cpu0.iew.iewDispStoreInsts              260975                       # Number of dispatched store instructions
system.cpu0.iew.iewDispNonSpecInsts               169                       # Number of dispatched non-speculative instructions
system.cpu0.iew.iewIQFullEvents                     1                       # Number of times the IQ has become full, causing a stall
system.cpu0.iew.iewLSQFullEvents                    0                       # Number of times the LSQ has become full, causing a stall
system.cpu0.iew.memOrderViolationEvents            78                       # Number of memory order violations
system.cpu0.iew.predictedTakenIncorrect          4444                       # Number of branches that were predicted taken incorrectly
system.cpu0.iew.predictedNotTakenIncorrect         5122                       # Number of branches that were predicted not taken incorrectly
system.cpu0.iew.branchMispredicts                9566                       # Number of branch mispredicts detected at execute
system.cpu0.iew.iewExecutedInsts              2107751                       # Number of executed instructions
system.cpu0.iew.iewExecLoadInsts               345384                       # Number of load instructions executed
system.cpu0.iew.iewExecSquashedInsts             5438                       # Number of squashed instructions skipped in execute
system.cpu0.iew.exec_swp                            0                       # number of swp insts executed
system.cpu0.iew.exec_nop                           24                       # number of nop insts executed
system.cpu0.iew.exec_refs                      595297                       # number of memory reference insts executed
system.cpu0.iew.exec_branches                  360403                       # Number of branches executed
system.cpu0.iew.exec_stores                    249913                       # Number of stores executed
system.cpu0.iew.exec_rate                    1.061779                       # Inst execution rate
system.cpu0.iew.wb_sent                       2101991                       # cumulative count of insts sent to commit
system.cpu0.iew.wb_count                      2100612                       # cumulative count of insts written-back
system.cpu0.iew.wb_producers                  1244157                       # num instructions producing a value
system.cpu0.iew.wb_consumers                  2258508                       # num instructions consuming a value
system.cpu0.iew.wb_rate                      1.058183                       # insts written-back per cycle
system.cpu0.iew.wb_fanout                    0.550876                       # average fanout of values written-back
system.cpu0.commit.commitSquashedInsts         232600                       # The number of squashed insts skipped by commit
system.cpu0.commit.commitNonSpecStalls            239                       # The number of times commit has been forced to stall to communicate backwards
system.cpu0.commit.branchMispredicts             9230                       # The number of times a branch was mispredicted
system.cpu0.commit.committed_per_cycle::samples      1930376                       # Number of insts commited each cycle
system.cpu0.commit.committed_per_cycle::mean     1.072259                       # Number of insts commited each cycle
system.cpu0.commit.committed_per_cycle::stdev     1.029712                       # Number of insts commited each cycle
system.cpu0.commit.committed_per_cycle::underflows            0      0.00%      0.00% # Number of insts commited each cycle
system.cpu0.commit.committed_per_cycle::0       453493     23.49%     23.49% # Number of insts commited each cycle
system.cpu0.commit.committed_per_cycle::1      1144284     59.28%     82.77% # Number of insts commited each cycle
system.cpu0.commit.committed_per_cycle::2       198256     10.27%     93.04% # Number of insts commited each cycle
system.cpu0.commit.committed_per_cycle::3        74484      3.86%     96.90% # Number of insts commited each cycle
system.cpu0.commit.committed_per_cycle::4        25996      1.35%     98.25% # Number of insts commited each cycle
system.cpu0.commit.committed_per_cycle::5        16574      0.86%     99.10% # Number of insts commited each cycle
system.cpu0.commit.committed_per_cycle::6         7513      0.39%     99.49% # Number of insts commited each cycle
system.cpu0.commit.committed_per_cycle::7         4524      0.23%     99.73% # Number of insts commited each cycle
system.cpu0.commit.committed_per_cycle::8         5252      0.27%    100.00% # Number of insts commited each cycle
system.cpu0.commit.committed_per_cycle::overflows            0      0.00%    100.00% # Number of insts commited each cycle
system.cpu0.commit.committed_per_cycle::min_value            0                       # Number of insts commited each cycle
system.cpu0.commit.committed_per_cycle::max_value            8                       # Number of insts commited each cycle
system.cpu0.commit.committed_per_cycle::total      1930376                       # Number of insts commited each cycle
system.cpu0.commit.committedInsts             1830503                       # Number of instructions committed
system.cpu0.commit.committedOps               2069864                       # Number of ops (including micro ops) committed
system.cpu0.commit.swp_count                        0                       # Number of s/w prefetches committed
system.cpu0.commit.refs                        575990                       # Number of memory references committed
system.cpu0.commit.loads                       328250                       # Number of loads committed
system.cpu0.commit.membars                        114                       # Number of memory barriers committed
system.cpu0.commit.branches                    357182                       # Number of branches committed
system.cpu0.commit.fp_insts                        16                       # Number of committed floating point instructions.
system.cpu0.commit.int_insts                  1783160                       # Number of committed integer instructions.
system.cpu0.commit.function_calls               27629                       # Number of function calls committed.
system.cpu0.commit.op_class_0::No_OpClass            0      0.00%      0.00% # Class of committed instruction
system.cpu0.commit.op_class_0::IntAlu         1488977     71.94%     71.94% # Class of committed instruction
system.cpu0.commit.op_class_0::IntMult           4260      0.21%     72.14% # Class of committed instruction
system.cpu0.commit.op_class_0::IntDiv               0      0.00%     72.14% # Class of committed instruction
system.cpu0.commit.op_class_0::FloatAdd             0      0.00%     72.14% # Class of committed instruction
system.cpu0.commit.op_class_0::FloatCmp             0      0.00%     72.14% # Class of committed instruction
system.cpu0.commit.op_class_0::FloatCvt             0      0.00%     72.14% # Class of committed instruction
system.cpu0.commit.op_class_0::FloatMult            0      0.00%     72.14% # Class of committed instruction
system.cpu0.commit.op_class_0::FloatMultAcc            0      0.00%     72.14% # Class of committed instruction
system.cpu0.commit.op_class_0::FloatDiv             0      0.00%     72.14% # Class of committed instruction
system.cpu0.commit.op_class_0::FloatMisc            0      0.00%     72.14% # Class of committed instruction
system.cpu0.commit.op_class_0::FloatSqrt            0      0.00%     72.14% # Class of committed instruction
system.cpu0.commit.op_class_0::SimdAdd              0      0.00%     72.14% # Class of committed instruction
system.cpu0.commit.op_class_0::SimdAddAcc            0      0.00%     72.14% # Class of committed instruction
system.cpu0.commit.op_class_0::SimdAlu              0      0.00%     72.14% # Class of committed instruction
system.cpu0.commit.op_class_0::SimdCmp              0      0.00%     72.14% # Class of committed instruction
system.cpu0.commit.op_class_0::SimdCvt              0      0.00%     72.14% # Class of committed instruction
system.cpu0.commit.op_class_0::SimdMisc             0      0.00%     72.14% # Class of committed instruction
system.cpu0.commit.op_class_0::SimdMult             0      0.00%     72.14% # Class of committed instruction
system.cpu0.commit.op_class_0::SimdMultAcc            0      0.00%     72.14% # Class of committed instruction
system.cpu0.commit.op_class_0::SimdShift            0      0.00%     72.14% # Class of committed instruction
system.cpu0.commit.op_class_0::SimdShiftAcc            0      0.00%     72.14% # Class of committed instruction
system.cpu0.commit.op_class_0::SimdSqrt             0      0.00%     72.14% # Class of committed instruction
system.cpu0.commit.op_class_0::SimdFloatAdd            0      0.00%     72.14% # Class of committed instruction
system.cpu0.commit.op_class_0::SimdFloatAlu            0      0.00%     72.14% # Class of committed instruction
system.cpu0.commit.op_class_0::SimdFloatCmp            0      0.00%     72.14% # Class of committed instruction
system.cpu0.commit.op_class_0::SimdFloatCvt            0      0.00%     72.14% # Class of committed instruction
system.cpu0.commit.op_class_0::SimdFloatDiv            0      0.00%     72.14% # Class of committed instruction
system.cpu0.commit.op_class_0::SimdFloatMisc          637      0.03%     72.17% # Class of committed instruction
system.cpu0.commit.op_class_0::SimdFloatMult            0      0.00%     72.17% # Class of committed instruction
system.cpu0.commit.op_class_0::SimdFloatMultAcc            0      0.00%     72.17% # Class of committed instruction
system.cpu0.commit.op_class_0::SimdFloatSqrt            0      0.00%     72.17% # Class of committed instruction
system.cpu0.commit.op_class_0::MemRead         328250     15.86%     88.03% # Class of committed instruction
system.cpu0.commit.op_class_0::MemWrite        247724     11.97%    100.00% # Class of committed instruction
system.cpu0.commit.op_class_0::FloatMemRead            0      0.00%    100.00% # Class of committed instruction
system.cpu0.commit.op_class_0::FloatMemWrite           16      0.00%    100.00% # Class of committed instruction
system.cpu0.commit.op_class_0::IprAccess            0      0.00%    100.00% # Class of committed instruction
system.cpu0.commit.op_class_0::InstPrefetch            0      0.00%    100.00% # Class of committed instruction
system.cpu0.commit.op_class_0::total          2069864                       # Class of committed instruction
system.cpu0.commit.bw_lim_events                 5252                       # number cycles where commit BW limit reached
system.cpu0.rob.rob_reads                     4227354                       # The number of ROB reads
system.cpu0.rob.rob_writes                    4638338                       # The number of ROB writes
system.cpu0.timesIdled                            563                       # Number of times that the entire CPU went into an idle state and unscheduled itself
system.cpu0.idleCycles                          21363                       # Total number of cycles that the CPU has spent unscheduled due to idling
system.cpu0.committedInsts                    1830503                       # Number of Instructions Simulated
system.cpu0.committedOps                      2069864                       # Number of Ops (including micro ops) Simulated
system.cpu0.cpi                              1.084463                       # CPI: Cycles Per Instruction
system.cpu0.cpi_total                        1.084463                       # CPI: Total CPI of All Threads
system.cpu0.ipc                              0.922115                       # IPC: Instructions Per Cycle
system.cpu0.ipc_total                        0.922115                       # IPC: Total IPC of All Threads
system.cpu0.int_regfile_reads                 2357525                       # number of integer regfile reads
system.cpu0.int_regfile_writes                1259057                       # number of integer regfile writes
system.cpu0.fp_regfile_reads                       16                       # number of floating regfile reads
system.cpu0.cc_regfile_reads                  7314516                       # number of cc regfile reads
system.cpu0.cc_regfile_writes                 1106580                       # number of cc regfile writes
system.cpu0.misc_regfile_reads                 611877                       # number of misc regfile reads
system.cpu0.misc_regfile_writes                   217                       # number of misc regfile writes
system.cpu0.dcache.tags.pwrStateResidencyTicks::UNDEFINED   1985112000                       # Cumulative time (in ticks) in various power states
system.cpu0.dcache.tags.replacements              820                       # number of replacements
system.cpu0.dcache.tags.tagsinuse          239.365909                       # Cycle average of tags in use
system.cpu0.dcache.tags.total_refs             539698                       # Total number of references to valid blocks.
system.cpu0.dcache.tags.sampled_refs             1074                       # Sample count of references to valid blocks.
system.cpu0.dcache.tags.avg_refs           502.512104                       # Average number of references to valid blocks.
system.cpu0.dcache.tags.warmup_cycle                0                       # Cycle when the warmup percentage was hit.
system.cpu0.dcache.tags.occ_blocks::cpu0.data   239.365909                       # Average occupied blocks per requestor
system.cpu0.dcache.tags.occ_percent::cpu0.data     0.935023                       # Average percentage of cache occupancy
system.cpu0.dcache.tags.occ_percent::total     0.935023                       # Average percentage of cache occupancy
system.cpu0.dcache.tags.occ_task_id_blocks::1024          254                       # Occupied blocks per task id
system.cpu0.dcache.tags.age_task_id_blocks_1024::0            4                       # Occupied blocks per task id
system.cpu0.dcache.tags.age_task_id_blocks_1024::1           24                       # Occupied blocks per task id
system.cpu0.dcache.tags.age_task_id_blocks_1024::2           49                       # Occupied blocks per task id
system.cpu0.dcache.tags.age_task_id_blocks_1024::3          177                       # Occupied blocks per task id
system.cpu0.dcache.tags.occ_task_id_percent::1024     0.992188                       # Percentage of cache occupancy per task id
system.cpu0.dcache.tags.tag_accesses          2171506                       # Number of tag accesses
system.cpu0.dcache.tags.data_accesses         2171506                       # Number of data accesses
system.cpu0.dcache.pwrStateResidencyTicks::UNDEFINED   1985112000                       # Cumulative time (in ticks) in various power states
system.cpu0.dcache.ReadReq_hits::cpu0.data       308899                       # number of ReadReq hits
system.cpu0.dcache.ReadReq_hits::total         308899                       # number of ReadReq hits
system.cpu0.dcache.WriteReq_hits::cpu0.data       230586                       # number of WriteReq hits
system.cpu0.dcache.WriteReq_hits::total        230586                       # number of WriteReq hits
system.cpu0.dcache.LoadLockedReq_hits::cpu0.data          105                       # number of LoadLockedReq hits
system.cpu0.dcache.LoadLockedReq_hits::total          105                       # number of LoadLockedReq hits
system.cpu0.dcache.StoreCondReq_hits::cpu0.data          108                       # number of StoreCondReq hits
system.cpu0.dcache.StoreCondReq_hits::total          108                       # number of StoreCondReq hits
system.cpu0.dcache.demand_hits::cpu0.data       539485                       # number of demand (read+write) hits
system.cpu0.dcache.demand_hits::total          539485                       # number of demand (read+write) hits
system.cpu0.dcache.overall_hits::cpu0.data       539485                       # number of overall hits
system.cpu0.dcache.overall_hits::total         539485                       # number of overall hits
system.cpu0.dcache.ReadReq_misses::cpu0.data         1736                       # number of ReadReq misses
system.cpu0.dcache.ReadReq_misses::total         1736                       # number of ReadReq misses
system.cpu0.dcache.WriteReq_misses::cpu0.data         1171                       # number of WriteReq misses
system.cpu0.dcache.WriteReq_misses::total         1171                       # number of WriteReq misses
system.cpu0.dcache.LoadLockedReq_misses::cpu0.data            3                       # number of LoadLockedReq misses
system.cpu0.dcache.LoadLockedReq_misses::total            3                       # number of LoadLockedReq misses
system.cpu0.dcache.demand_misses::cpu0.data         2907                       # number of demand (read+write) misses
system.cpu0.dcache.demand_misses::total          2907                       # number of demand (read+write) misses
system.cpu0.dcache.overall_misses::cpu0.data         2907                       # number of overall misses
system.cpu0.dcache.overall_misses::total         2907                       # number of overall misses
system.cpu0.dcache.ReadReq_miss_latency::cpu0.data     75978000                       # number of ReadReq miss cycles
system.cpu0.dcache.ReadReq_miss_latency::total     75978000                       # number of ReadReq miss cycles
system.cpu0.dcache.WriteReq_miss_latency::cpu0.data     41636000                       # number of WriteReq miss cycles
system.cpu0.dcache.WriteReq_miss_latency::total     41636000                       # number of WriteReq miss cycles
system.cpu0.dcache.LoadLockedReq_miss_latency::cpu0.data       184000                       # number of LoadLockedReq miss cycles
system.cpu0.dcache.LoadLockedReq_miss_latency::total       184000                       # number of LoadLockedReq miss cycles
system.cpu0.dcache.demand_miss_latency::cpu0.data    117614000                       # number of demand (read+write) miss cycles
system.cpu0.dcache.demand_miss_latency::total    117614000                       # number of demand (read+write) miss cycles
system.cpu0.dcache.overall_miss_latency::cpu0.data    117614000                       # number of overall miss cycles
system.cpu0.dcache.overall_miss_latency::total    117614000                       # number of overall miss cycles
system.cpu0.dcache.ReadReq_accesses::cpu0.data       310635                       # number of ReadReq accesses(hits+misses)
system.cpu0.dcache.ReadReq_accesses::total       310635                       # number of ReadReq accesses(hits+misses)
system.cpu0.dcache.WriteReq_accesses::cpu0.data       231757                       # number of WriteReq accesses(hits+misses)
system.cpu0.dcache.WriteReq_accesses::total       231757                       # number of WriteReq accesses(hits+misses)
system.cpu0.dcache.LoadLockedReq_accesses::cpu0.data          108                       # number of LoadLockedReq accesses(hits+misses)
system.cpu0.dcache.LoadLockedReq_accesses::total          108                       # number of LoadLockedReq accesses(hits+misses)
system.cpu0.dcache.StoreCondReq_accesses::cpu0.data          108                       # number of StoreCondReq accesses(hits+misses)
system.cpu0.dcache.StoreCondReq_accesses::total          108                       # number of StoreCondReq accesses(hits+misses)
system.cpu0.dcache.demand_accesses::cpu0.data       542392                       # number of demand (read+write) accesses
system.cpu0.dcache.demand_accesses::total       542392                       # number of demand (read+write) accesses
system.cpu0.dcache.overall_accesses::cpu0.data       542392                       # number of overall (read+write) accesses
system.cpu0.dcache.overall_accesses::total       542392                       # number of overall (read+write) accesses
system.cpu0.dcache.ReadReq_miss_rate::cpu0.data     0.005589                       # miss rate for ReadReq accesses
system.cpu0.dcache.ReadReq_miss_rate::total     0.005589                       # miss rate for ReadReq accesses
system.cpu0.dcache.WriteReq_miss_rate::cpu0.data     0.005053                       # miss rate for WriteReq accesses
system.cpu0.dcache.WriteReq_miss_rate::total     0.005053                       # miss rate for WriteReq accesses
system.cpu0.dcache.LoadLockedReq_miss_rate::cpu0.data     0.027778                       # miss rate for LoadLockedReq accesses
system.cpu0.dcache.LoadLockedReq_miss_rate::total     0.027778                       # miss rate for LoadLockedReq accesses
system.cpu0.dcache.demand_miss_rate::cpu0.data     0.005360                       # miss rate for demand accesses
system.cpu0.dcache.demand_miss_rate::total     0.005360                       # miss rate for demand accesses
system.cpu0.dcache.overall_miss_rate::cpu0.data     0.005360                       # miss rate for overall accesses
system.cpu0.dcache.overall_miss_rate::total     0.005360                       # miss rate for overall accesses
system.cpu0.dcache.ReadReq_avg_miss_latency::cpu0.data 43766.129032                       # average ReadReq miss latency
system.cpu0.dcache.ReadReq_avg_miss_latency::total 43766.129032                       # average ReadReq miss latency
system.cpu0.dcache.WriteReq_avg_miss_latency::cpu0.data 35555.935098                       # average WriteReq miss latency
system.cpu0.dcache.WriteReq_avg_miss_latency::total 35555.935098                       # average WriteReq miss latency
system.cpu0.dcache.LoadLockedReq_avg_miss_latency::cpu0.data 61333.333333                       # average LoadLockedReq miss latency
system.cpu0.dcache.LoadLockedReq_avg_miss_latency::total 61333.333333                       # average LoadLockedReq miss latency
system.cpu0.dcache.demand_avg_miss_latency::cpu0.data 40458.892329                       # average overall miss latency
system.cpu0.dcache.demand_avg_miss_latency::total 40458.892329                       # average overall miss latency
system.cpu0.dcache.overall_avg_miss_latency::cpu0.data 40458.892329                       # average overall miss latency
system.cpu0.dcache.overall_avg_miss_latency::total 40458.892329                       # average overall miss latency
system.cpu0.dcache.blocked_cycles::no_mshrs           63                       # number of cycles access was blocked
system.cpu0.dcache.blocked_cycles::no_targets            0                       # number of cycles access was blocked
system.cpu0.dcache.blocked::no_mshrs                3                       # number of cycles access was blocked
system.cpu0.dcache.blocked::no_targets              0                       # number of cycles access was blocked
system.cpu0.dcache.avg_blocked_cycles::no_mshrs           21                       # average number of cycles each access was blocked
system.cpu0.dcache.avg_blocked_cycles::no_targets          nan                       # average number of cycles each access was blocked
system.cpu0.dcache.writebacks::writebacks          671                       # number of writebacks
system.cpu0.dcache.writebacks::total              671                       # number of writebacks
system.cpu0.dcache.ReadReq_mshr_hits::cpu0.data         1387                       # number of ReadReq MSHR hits
system.cpu0.dcache.ReadReq_mshr_hits::total         1387                       # number of ReadReq MSHR hits
system.cpu0.dcache.WriteReq_mshr_hits::cpu0.data          447                       # number of WriteReq MSHR hits
system.cpu0.dcache.WriteReq_mshr_hits::total          447                       # number of WriteReq MSHR hits
system.cpu0.dcache.LoadLockedReq_mshr_hits::cpu0.data            2                       # number of LoadLockedReq MSHR hits
system.cpu0.dcache.LoadLockedReq_mshr_hits::total            2                       # number of LoadLockedReq MSHR hits
system.cpu0.dcache.demand_mshr_hits::cpu0.data         1834                       # number of demand (read+write) MSHR hits
system.cpu0.dcache.demand_mshr_hits::total         1834                       # number of demand (read+write) MSHR hits
system.cpu0.dcache.overall_mshr_hits::cpu0.data         1834                       # number of overall MSHR hits
system.cpu0.dcache.overall_mshr_hits::total         1834                       # number of overall MSHR hits
system.cpu0.dcache.ReadReq_mshr_misses::cpu0.data          349                       # number of ReadReq MSHR misses
system.cpu0.dcache.ReadReq_mshr_misses::total          349                       # number of ReadReq MSHR misses
system.cpu0.dcache.WriteReq_mshr_misses::cpu0.data          724                       # number of WriteReq MSHR misses
system.cpu0.dcache.WriteReq_mshr_misses::total          724                       # number of WriteReq MSHR misses
system.cpu0.dcache.LoadLockedReq_mshr_misses::cpu0.data            1                       # number of LoadLockedReq MSHR misses
system.cpu0.dcache.LoadLockedReq_mshr_misses::total            1                       # number of LoadLockedReq MSHR misses
system.cpu0.dcache.demand_mshr_misses::cpu0.data         1073                       # number of demand (read+write) MSHR misses
system.cpu0.dcache.demand_mshr_misses::total         1073                       # number of demand (read+write) MSHR misses
system.cpu0.dcache.overall_mshr_misses::cpu0.data         1073                       # number of overall MSHR misses
system.cpu0.dcache.overall_mshr_misses::total         1073                       # number of overall MSHR misses
system.cpu0.dcache.ReadReq_mshr_miss_latency::cpu0.data     19576000                       # number of ReadReq MSHR miss cycles
system.cpu0.dcache.ReadReq_mshr_miss_latency::total     19576000                       # number of ReadReq MSHR miss cycles
system.cpu0.dcache.WriteReq_mshr_miss_latency::cpu0.data     16927500                       # number of WriteReq MSHR miss cycles
system.cpu0.dcache.WriteReq_mshr_miss_latency::total     16927500                       # number of WriteReq MSHR miss cycles
system.cpu0.dcache.LoadLockedReq_mshr_miss_latency::cpu0.data        63500                       # number of LoadLockedReq MSHR miss cycles
system.cpu0.dcache.LoadLockedReq_mshr_miss_latency::total        63500                       # number of LoadLockedReq MSHR miss cycles
system.cpu0.dcache.demand_mshr_miss_latency::cpu0.data     36503500                       # number of demand (read+write) MSHR miss cycles
system.cpu0.dcache.demand_mshr_miss_latency::total     36503500                       # number of demand (read+write) MSHR miss cycles
system.cpu0.dcache.overall_mshr_miss_latency::cpu0.data     36503500                       # number of overall MSHR miss cycles
system.cpu0.dcache.overall_mshr_miss_latency::total     36503500                       # number of overall MSHR miss cycles
system.cpu0.dcache.ReadReq_mshr_miss_rate::cpu0.data     0.001124                       # mshr miss rate for ReadReq accesses
system.cpu0.dcache.ReadReq_mshr_miss_rate::total     0.001124                       # mshr miss rate for ReadReq accesses
system.cpu0.dcache.WriteReq_mshr_miss_rate::cpu0.data     0.003124                       # mshr miss rate for WriteReq accesses
system.cpu0.dcache.WriteReq_mshr_miss_rate::total     0.003124                       # mshr miss rate for WriteReq accesses
system.cpu0.dcache.LoadLockedReq_mshr_miss_rate::cpu0.data     0.009259                       # mshr miss rate for LoadLockedReq accesses
system.cpu0.dcache.LoadLockedReq_mshr_miss_rate::total     0.009259                       # mshr miss rate for LoadLockedReq accesses
system.cpu0.dcache.demand_mshr_miss_rate::cpu0.data     0.001978                       # mshr miss rate for demand accesses
system.cpu0.dcache.demand_mshr_miss_rate::total     0.001978                       # mshr miss rate for demand accesses
system.cpu0.dcache.overall_mshr_miss_rate::cpu0.data     0.001978                       # mshr miss rate for overall accesses
system.cpu0.dcache.overall_mshr_miss_rate::total     0.001978                       # mshr miss rate for overall accesses
system.cpu0.dcache.ReadReq_avg_mshr_miss_latency::cpu0.data 56091.690544                       # average ReadReq mshr miss latency
system.cpu0.dcache.ReadReq_avg_mshr_miss_latency::total 56091.690544                       # average ReadReq mshr miss latency
system.cpu0.dcache.WriteReq_avg_mshr_miss_latency::cpu0.data 23380.524862                       # average WriteReq mshr miss latency
system.cpu0.dcache.WriteReq_avg_mshr_miss_latency::total 23380.524862                       # average WriteReq mshr miss latency
system.cpu0.dcache.LoadLockedReq_avg_mshr_miss_latency::cpu0.data        63500                       # average LoadLockedReq mshr miss latency
system.cpu0.dcache.LoadLockedReq_avg_mshr_miss_latency::total        63500                       # average LoadLockedReq mshr miss latency
system.cpu0.dcache.demand_avg_mshr_miss_latency::cpu0.data 34020.037279                       # average overall mshr miss latency
system.cpu0.dcache.demand_avg_mshr_miss_latency::total 34020.037279                       # average overall mshr miss latency
system.cpu0.dcache.overall_avg_mshr_miss_latency::cpu0.data 34020.037279                       # average overall mshr miss latency
system.cpu0.dcache.overall_avg_mshr_miss_latency::total 34020.037279                       # average overall mshr miss latency
system.cpu0.icache.tags.pwrStateResidencyTicks::UNDEFINED   1985112000                       # Cumulative time (in ticks) in various power states
system.cpu0.icache.tags.replacements            25820                       # number of replacements
system.cpu0.icache.tags.tagsinuse          254.589979                       # Cycle average of tags in use
system.cpu0.icache.tags.total_refs             263691                       # Total number of references to valid blocks.
system.cpu0.icache.tags.sampled_refs            26076                       # Sample count of references to valid blocks.
system.cpu0.icache.tags.avg_refs            10.112402                       # Average number of references to valid blocks.
system.cpu0.icache.tags.warmup_cycle         43061500                       # Cycle when the warmup percentage was hit.
system.cpu0.icache.tags.occ_blocks::cpu0.inst   254.589979                       # Average occupied blocks per requestor
system.cpu0.icache.tags.occ_percent::cpu0.inst     0.994492                       # Average percentage of cache occupancy
system.cpu0.icache.tags.occ_percent::total     0.994492                       # Average percentage of cache occupancy
system.cpu0.icache.tags.occ_task_id_blocks::1024          256                       # Occupied blocks per task id
system.cpu0.icache.tags.age_task_id_blocks_1024::0           32                       # Occupied blocks per task id
system.cpu0.icache.tags.age_task_id_blocks_1024::1           29                       # Occupied blocks per task id
system.cpu0.icache.tags.age_task_id_blocks_1024::2           38                       # Occupied blocks per task id
system.cpu0.icache.tags.age_task_id_blocks_1024::3          157                       # Occupied blocks per task id
system.cpu0.icache.tags.occ_task_id_percent::1024            1                       # Percentage of cache occupancy per task id
system.cpu0.icache.tags.tag_accesses          1185968                       # Number of tag accesses
system.cpu0.icache.tags.data_accesses         1185968                       # Number of data accesses
system.cpu0.icache.pwrStateResidencyTicks::UNDEFINED   1985112000                       # Cumulative time (in ticks) in various power states
system.cpu0.icache.ReadReq_hits::cpu0.inst       263691                       # number of ReadReq hits
system.cpu0.icache.ReadReq_hits::total         263691                       # number of ReadReq hits
system.cpu0.icache.demand_hits::cpu0.inst       263691                       # number of demand (read+write) hits
system.cpu0.icache.demand_hits::total          263691                       # number of demand (read+write) hits
system.cpu0.icache.overall_hits::cpu0.inst       263691                       # number of overall hits
system.cpu0.icache.overall_hits::total         263691                       # number of overall hits
system.cpu0.icache.ReadReq_misses::cpu0.inst        26282                       # number of ReadReq misses
system.cpu0.icache.ReadReq_misses::total        26282                       # number of ReadReq misses
system.cpu0.icache.demand_misses::cpu0.inst        26282                       # number of demand (read+write) misses
system.cpu0.icache.demand_misses::total         26282                       # number of demand (read+write) misses
system.cpu0.icache.overall_misses::cpu0.inst        26282                       # number of overall misses
system.cpu0.icache.overall_misses::total        26282                       # number of overall misses
system.cpu0.icache.ReadReq_miss_latency::cpu0.inst    432996000                       # number of ReadReq miss cycles
system.cpu0.icache.ReadReq_miss_latency::total    432996000                       # number of ReadReq miss cycles
system.cpu0.icache.demand_miss_latency::cpu0.inst    432996000                       # number of demand (read+write) miss cycles
system.cpu0.icache.demand_miss_latency::total    432996000                       # number of demand (read+write) miss cycles
system.cpu0.icache.overall_miss_latency::cpu0.inst    432996000                       # number of overall miss cycles
system.cpu0.icache.overall_miss_latency::total    432996000                       # number of overall miss cycles
system.cpu0.icache.ReadReq_accesses::cpu0.inst       289973                       # number of ReadReq accesses(hits+misses)
system.cpu0.icache.ReadReq_accesses::total       289973                       # number of ReadReq accesses(hits+misses)
system.cpu0.icache.demand_accesses::cpu0.inst       289973                       # number of demand (read+write) accesses
system.cpu0.icache.demand_accesses::total       289973                       # number of demand (read+write) accesses
system.cpu0.icache.overall_accesses::cpu0.inst       289973                       # number of overall (read+write) accesses
system.cpu0.icache.overall_accesses::total       289973                       # number of overall (read+write) accesses
system.cpu0.icache.ReadReq_miss_rate::cpu0.inst     0.090636                       # miss rate for ReadReq accesses
system.cpu0.icache.ReadReq_miss_rate::total     0.090636                       # miss rate for ReadReq accesses
system.cpu0.icache.demand_miss_rate::cpu0.inst     0.090636                       # miss rate for demand accesses
system.cpu0.icache.demand_miss_rate::total     0.090636                       # miss rate for demand accesses
system.cpu0.icache.overall_miss_rate::cpu0.inst     0.090636                       # miss rate for overall accesses
system.cpu0.icache.overall_miss_rate::total     0.090636                       # miss rate for overall accesses
system.cpu0.icache.ReadReq_avg_miss_latency::cpu0.inst 16475.001902                       # average ReadReq miss latency
system.cpu0.icache.ReadReq_avg_miss_latency::total 16475.001902                       # average ReadReq miss latency
system.cpu0.icache.demand_avg_miss_latency::cpu0.inst 16475.001902                       # average overall miss latency
system.cpu0.icache.demand_avg_miss_latency::total 16475.001902                       # average overall miss latency
system.cpu0.icache.overall_avg_miss_latency::cpu0.inst 16475.001902                       # average overall miss latency
system.cpu0.icache.overall_avg_miss_latency::total 16475.001902                       # average overall miss latency
system.cpu0.icache.blocked_cycles::no_mshrs           58                       # number of cycles access was blocked
system.cpu0.icache.blocked_cycles::no_targets            0                       # number of cycles access was blocked
system.cpu0.icache.blocked::no_mshrs                4                       # number of cycles access was blocked
system.cpu0.icache.blocked::no_targets              0                       # number of cycles access was blocked
system.cpu0.icache.avg_blocked_cycles::no_mshrs    14.500000                       # average number of cycles each access was blocked
system.cpu0.icache.avg_blocked_cycles::no_targets          nan                       # average number of cycles each access was blocked
system.cpu0.icache.writebacks::writebacks        25820                       # number of writebacks
system.cpu0.icache.writebacks::total            25820                       # number of writebacks
system.cpu0.icache.ReadReq_mshr_hits::cpu0.inst          206                       # number of ReadReq MSHR hits
system.cpu0.icache.ReadReq_mshr_hits::total          206                       # number of ReadReq MSHR hits
system.cpu0.icache.demand_mshr_hits::cpu0.inst          206                       # number of demand (read+write) MSHR hits
system.cpu0.icache.demand_mshr_hits::total          206                       # number of demand (read+write) MSHR hits
system.cpu0.icache.overall_mshr_hits::cpu0.inst          206                       # number of overall MSHR hits
system.cpu0.icache.overall_mshr_hits::total          206                       # number of overall MSHR hits
system.cpu0.icache.ReadReq_mshr_misses::cpu0.inst        26076                       # number of ReadReq MSHR misses
system.cpu0.icache.ReadReq_mshr_misses::total        26076                       # number of ReadReq MSHR misses
system.cpu0.icache.demand_mshr_misses::cpu0.inst        26076                       # number of demand (read+write) MSHR misses
system.cpu0.icache.demand_mshr_misses::total        26076                       # number of demand (read+write) MSHR misses
system.cpu0.icache.overall_mshr_misses::cpu0.inst        26076                       # number of overall MSHR misses
system.cpu0.icache.overall_mshr_misses::total        26076                       # number of overall MSHR misses
system.cpu0.icache.ReadReq_mshr_miss_latency::cpu0.inst    375349000                       # number of ReadReq MSHR miss cycles
system.cpu0.icache.ReadReq_mshr_miss_latency::total    375349000                       # number of ReadReq MSHR miss cycles
system.cpu0.icache.demand_mshr_miss_latency::cpu0.inst    375349000                       # number of demand (read+write) MSHR miss cycles
system.cpu0.icache.demand_mshr_miss_latency::total    375349000                       # number of demand (read+write) MSHR miss cycles
system.cpu0.icache.overall_mshr_miss_latency::cpu0.inst    375349000                       # number of overall MSHR miss cycles
system.cpu0.icache.overall_mshr_miss_latency::total    375349000                       # number of overall MSHR miss cycles
[...]
system.l2.ReadSharedReq_miss_rate::cpu0.data     0.845272                       # miss rate for ReadSharedReq accesses
system.l2.ReadSharedReq_miss_rate::total     0.845272                       # miss rate for ReadSharedReq accesses
system.l2.demand_miss_rate::cpu0.inst        0.027305                       # miss rate for demand accesses
system.l2.demand_miss_rate::cpu0.data        0.412477                       # miss rate for demand accesses
system.l2.demand_miss_rate::total            0.042541                       # miss rate for demand accesses
system.l2.overall_miss_rate::cpu0.inst       0.027305                       # miss rate for overall accesses
system.l2.overall_miss_rate::cpu0.data       0.412477                       # miss rate for overall accesses
system.l2.overall_miss_rate::total           0.042541                       # miss rate for overall accesses
system.l2.ReadExReq_avg_miss_latency::cpu0.data 61611.486486                       # average ReadExReq miss latency
system.l2.ReadExReq_avg_miss_latency::total 61611.486486                       # average ReadExReq miss latency
system.l2.ReadCleanReq_avg_miss_latency::cpu0.inst 61278.089888                       # average ReadCleanReq miss latency
system.l2.ReadCleanReq_avg_miss_latency::total 61278.089888                       # average ReadCleanReq miss latency
system.l2.ReadSharedReq_avg_miss_latency::cpu0.data 61342.372881                       # average ReadSharedReq miss latency
system.l2.ReadSharedReq_avg_miss_latency::total 61342.372881                       # average ReadSharedReq miss latency
system.l2.demand_avg_miss_latency::cpu0.inst 61278.089888                       # average overall miss latency
system.l2.demand_avg_miss_latency::cpu0.data 61432.279910                       # average overall miss latency
system.l2.demand_avg_miss_latency::total 61337.229437                       # average overall miss latency
system.l2.overall_avg_miss_latency::cpu0.inst 61278.089888                       # average overall miss latency
system.l2.overall_avg_miss_latency::cpu0.data 61432.279910                       # average overall miss latency
system.l2.overall_avg_miss_latency::total 61337.229437                       # average overall miss latency
system.l2.blocked_cycles::no_mshrs                  0                       # number of cycles access was blocked
system.l2.blocked_cycles::no_targets                0                       # number of cycles access was blocked
system.l2.blocked::no_mshrs                         0                       # number of cycles access was blocked
system.l2.blocked::no_targets                       0                       # number of cycles access was blocked
system.l2.avg_blocked_cycles::no_mshrs            nan                       # average number of cycles each access was blocked
system.l2.avg_blocked_cycles::no_targets          nan                       # average number of cycles each access was blocked
system.l2.ReadCleanReq_mshr_hits::cpu0.inst            2                       # number of ReadCleanReq MSHR hits
system.l2.ReadCleanReq_mshr_hits::total             2                       # number of ReadCleanReq MSHR hits
system.l2.ReadSharedReq_mshr_hits::cpu0.data            9                       # number of ReadSharedReq MSHR hits
system.l2.ReadSharedReq_mshr_hits::total            9                       # number of ReadSharedReq MSHR hits
system.l2.demand_mshr_hits::cpu0.inst               2                       # number of demand (read+write) MSHR hits
system.l2.demand_mshr_hits::cpu0.data               9                       # number of demand (read+write) MSHR hits
system.l2.demand_mshr_hits::total                  11                       # number of demand (read+write) MSHR hits
system.l2.overall_mshr_hits::cpu0.inst              2                       # number of overall MSHR hits
system.l2.overall_mshr_hits::cpu0.data              9                       # number of overall MSHR hits
system.l2.overall_mshr_hits::total                 11                       # number of overall MSHR hits
system.l2.ReadExReq_mshr_misses::cpu0.data          148                       # number of ReadExReq MSHR misses
system.l2.ReadExReq_mshr_misses::total            148                       # number of ReadExReq MSHR misses
system.l2.ReadCleanReq_mshr_misses::cpu0.inst          710                       # number of ReadCleanReq MSHR misses
system.l2.ReadCleanReq_mshr_misses::total          710                       # number of ReadCleanReq MSHR misses
system.l2.ReadSharedReq_mshr_misses::cpu0.data          286                       # number of ReadSharedReq MSHR misses
system.l2.ReadSharedReq_mshr_misses::total          286                       # number of ReadSharedReq MSHR misses
system.l2.demand_mshr_misses::cpu0.inst           710                       # number of demand (read+write) MSHR misses
system.l2.demand_mshr_misses::cpu0.data           434                       # number of demand (read+write) MSHR misses
system.l2.demand_mshr_misses::total              1144                       # number of demand (read+write) MSHR misses
system.l2.overall_mshr_misses::cpu0.inst          710                       # number of overall MSHR misses
system.l2.overall_mshr_misses::cpu0.data          434                       # number of overall MSHR misses
system.l2.overall_mshr_misses::total             1144                       # number of overall MSHR misses
system.l2.ReadExReq_mshr_miss_latency::cpu0.data      7638500                       # number of ReadExReq MSHR miss cycles
system.l2.ReadExReq_mshr_miss_latency::total      7638500                       # number of ReadExReq MSHR miss cycles
system.l2.ReadCleanReq_mshr_miss_latency::cpu0.inst     36421500                       # number of ReadCleanReq MSHR miss cycles
system.l2.ReadCleanReq_mshr_miss_latency::total     36421500                       # number of ReadCleanReq MSHR miss cycles
system.l2.ReadSharedReq_mshr_miss_latency::cpu0.data     14724000                       # number of ReadSharedReq MSHR miss cycles
system.l2.ReadSharedReq_mshr_miss_latency::total     14724000                       # number of ReadSharedReq MSHR miss cycles
system.l2.demand_mshr_miss_latency::cpu0.inst     36421500                       # number of demand (read+write) MSHR miss cycles
system.l2.demand_mshr_miss_latency::cpu0.data     22362500                       # number of demand (read+write) MSHR miss cycles
system.l2.demand_mshr_miss_latency::total     58784000                       # number of demand (read+write) MSHR miss cycles
system.l2.overall_mshr_miss_latency::cpu0.inst     36421500                       # number of overall MSHR miss cycles
system.l2.overall_mshr_miss_latency::cpu0.data     22362500                       # number of overall MSHR miss cycles
system.l2.overall_mshr_miss_latency::total     58784000                       # number of overall MSHR miss cycles
system.l2.ReadExReq_mshr_miss_rate::cpu0.data     0.204138                       # mshr miss rate for ReadExReq accesses
system.l2.ReadExReq_mshr_miss_rate::total     0.204138                       # mshr miss rate for ReadExReq accesses
system.l2.ReadCleanReq_mshr_miss_rate::cpu0.inst     0.027228                       # mshr miss rate for ReadCleanReq accesses
system.l2.ReadCleanReq_mshr_miss_rate::total     0.027228                       # mshr miss rate for ReadCleanReq accesses
system.l2.ReadSharedReq_mshr_miss_rate::cpu0.data     0.819484                       # mshr miss rate for ReadSharedReq accesses
system.l2.ReadSharedReq_mshr_miss_rate::total     0.819484                       # mshr miss rate for ReadSharedReq accesses
system.l2.demand_mshr_miss_rate::cpu0.inst     0.027228                       # mshr miss rate for demand accesses
system.l2.demand_mshr_miss_rate::cpu0.data     0.404097                       # mshr miss rate for demand accesses
system.l2.demand_mshr_miss_rate::total       0.042136                       # mshr miss rate for demand accesses
system.l2.overall_mshr_miss_rate::cpu0.inst     0.027228                       # mshr miss rate for overall accesses
system.l2.overall_mshr_miss_rate::cpu0.data     0.404097                       # mshr miss rate for overall accesses
system.l2.overall_mshr_miss_rate::total      0.042136                       # mshr miss rate for overall accesses
system.l2.ReadExReq_avg_mshr_miss_latency::cpu0.data 51611.486486                       # average ReadExReq mshr miss latency
system.l2.ReadExReq_avg_mshr_miss_latency::total 51611.486486                       # average ReadExReq mshr miss latency
system.l2.ReadCleanReq_avg_mshr_miss_latency::cpu0.inst 51297.887324                       # average ReadCleanReq mshr miss latency
system.l2.ReadCleanReq_avg_mshr_miss_latency::total 51297.887324                       # average ReadCleanReq mshr miss latency
system.l2.ReadSharedReq_avg_mshr_miss_latency::cpu0.data 51482.517483                       # average ReadSharedReq mshr miss latency
system.l2.ReadSharedReq_avg_mshr_miss_latency::total 51482.517483                       # average ReadSharedReq mshr miss latency
system.l2.demand_avg_mshr_miss_latency::cpu0.inst 51297.887324                       # average overall mshr miss latency
system.l2.demand_avg_mshr_miss_latency::cpu0.data 51526.497696                       # average overall mshr miss latency
system.l2.demand_avg_mshr_miss_latency::total 51384.615385                       # average overall mshr miss latency
system.l2.overall_avg_mshr_miss_latency::cpu0.inst 51297.887324                       # average overall mshr miss latency
system.l2.overall_avg_mshr_miss_latency::cpu0.data 51526.497696                       # average overall mshr miss latency
system.l2.overall_avg_mshr_miss_latency::total 51384.615385                       # average overall mshr miss latency
system.membus.snoop_filter.tot_requests          1285                       # Total number of requests made to the snoop filter.
system.membus.snoop_filter.hit_single_requests            0                       # Number of requests hitting in the snoop filter with a single holder of the requested data.
system.membus.snoop_filter.hit_multi_requests            0                       # Number of requests hitting in the snoop filter with multiple (>1) holders of the requested data.
system.membus.snoop_filter.tot_snoops               0                       # Total number of snoops made to the snoop filter.
system.membus.snoop_filter.hit_single_snoops            0                       # Number of snoops hitting in the snoop filter with a single holder of the requested data.
system.membus.snoop_filter.hit_multi_snoops            0                       # Number of snoops hitting in the snoop filter with multiple (>1) holders of the requested data.
system.membus.pwrStateResidencyTicks::UNDEFINED   1985112000                       # Cumulative time (in ticks) in various power states
system.membus.trans_dist::ReadResp                996                       # Transaction distribution
system.membus.trans_dist::ReadExReq               148                       # Transaction distribution
system.membus.trans_dist::ReadExResp              148                       # Transaction distribution
system.membus.trans_dist::ReadSharedReq           996                       # Transaction distribution
system.membus.pkt_count_system.l2.mem_side::system.physmem.port         2288                       # Packet count per connected master and slave (bytes)
system.membus.pkt_count::total                   2288                       # Packet count per connected master and slave (bytes)
system.membus.pkt_size_system.l2.mem_side::system.physmem.port        73216                       # Cumulative packet size per connected master and slave (bytes)
system.membus.pkt_size::total                   73216                       # Cumulative packet size per connected master and slave (bytes)
system.membus.snoops                                0                       # Total snoops (count)
system.membus.snoopTraffic                          0                       # Total snoop traffic (bytes)
system.membus.snoop_fanout::samples              1285                       # Request fanout histogram
system.membus.snoop_fanout::mean                    0                       # Request fanout histogram
system.membus.snoop_fanout::stdev                   0                       # Request fanout histogram
system.membus.snoop_fanout::underflows              0      0.00%      0.00% # Request fanout histogram
system.membus.snoop_fanout::0                    1285    100.00%    100.00% # Request fanout histogram
system.membus.snoop_fanout::1                       0      0.00%    100.00% # Request fanout histogram
system.membus.snoop_fanout::overflows               0      0.00%    100.00% # Request fanout histogram
system.membus.snoop_fanout::min_value               0                       # Request fanout histogram
system.membus.snoop_fanout::max_value               0                       # Request fanout histogram
system.membus.snoop_fanout::total                1285                       # Request fanout histogram
system.membus.reqLayer0.occupancy             1910076                       # Layer occupancy (ticks)
system.membus.reqLayer0.utilization               0.1                       # Layer utilization (%)
system.membus.respLayer1.occupancy            5720000                       # Layer occupancy (ticks)
system.membus.respLayer1.utilization              0.3                       # Layer utilization (%)
system.tol2bus.snoop_filter.tot_requests        53790                       # Total number of requests made to the snoop filter.
system.tol2bus.snoop_filter.hit_single_requests        26645                       # Number of requests hitting in the snoop filter with a single holder of the requested data.
system.tol2bus.snoop_filter.hit_multi_requests          124                       # Number of requests hitting in the snoop filter with multiple (>1) holders of the requested data.
system.tol2bus.snoop_filter.tot_snoops              0                       # Total number of snoops made to the snoop filter.
system.tol2bus.snoop_filter.hit_single_snoops            0                       # Number of snoops hitting in the snoop filter with a single holder of the requested data.
system.tol2bus.snoop_filter.hit_multi_snoops            0                       # Number of snoops hitting in the snoop filter with multiple (>1) holders of the requested data.
system.tol2bus.pwrStateResidencyTicks::UNDEFINED   1985112000                       # Cumulative time (in ticks) in various power states
system.tol2bus.trans_dist::ReadResp             26425                       # Transaction distribution
system.tol2bus.trans_dist::WritebackDirty          671                       # Transaction distribution
system.tol2bus.trans_dist::WritebackClean        25820                       # Transaction distribution
system.tol2bus.trans_dist::CleanEvict             149                       # Transaction distribution
system.tol2bus.trans_dist::ReadExReq              725                       # Transaction distribution
system.tol2bus.trans_dist::ReadExResp             725                       # Transaction distribution
system.tol2bus.trans_dist::ReadCleanReq         26076                       # Transaction distribution
system.tol2bus.trans_dist::ReadSharedReq          349                       # Transaction distribution
system.tol2bus.pkt_count_system.cpu0.icache.mem_side::system.l2.cpu_side        77972                       # Packet count per connected master and slave (bytes)
system.tol2bus.pkt_count_system.cpu0.dcache.mem_side::system.l2.cpu_side         2968                       # Packet count per connected master and slave (bytes)
system.tol2bus.pkt_count::total                 80940                       # Packet count per connected master and slave (bytes)
system.tol2bus.pkt_size_system.cpu0.icache.mem_side::system.l2.cpu_side      3321344                       # Cumulative packet size per connected master and slave (bytes)
system.tol2bus.pkt_size_system.cpu0.dcache.mem_side::system.l2.cpu_side       111680                       # Cumulative packet size per connected master and slave (bytes)
system.tol2bus.pkt_size::total                3433024                       # Cumulative packet size per connected master and slave (bytes)
system.tol2bus.snoops                               0                       # Total snoops (count)
system.tol2bus.snoopTraffic                         0                       # Total snoop traffic (bytes)
system.tol2bus.snoop_fanout::samples            27150                       # Request fanout histogram
system.tol2bus.snoop_fanout::mean            0.004751                       # Request fanout histogram
system.tol2bus.snoop_fanout::stdev           0.068768                       # Request fanout histogram
system.tol2bus.snoop_fanout::underflows             0      0.00%      0.00% # Request fanout histogram
system.tol2bus.snoop_fanout::0                  27021     99.52%     99.52% # Request fanout histogram
system.tol2bus.snoop_fanout::1                    129      0.48%    100.00% # Request fanout histogram
system.tol2bus.snoop_fanout::2                      0      0.00%    100.00% # Request fanout histogram
system.tol2bus.snoop_fanout::3                      0      0.00%    100.00% # Request fanout histogram
system.tol2bus.snoop_fanout::4                      0      0.00%    100.00% # Request fanout histogram
system.tol2bus.snoop_fanout::5                      0      0.00%    100.00% # Request fanout histogram
system.tol2bus.snoop_fanout::6                      0      0.00%    100.00% # Request fanout histogram
system.tol2bus.snoop_fanout::7                      0      0.00%    100.00% # Request fanout histogram
system.tol2bus.snoop_fanout::8                      0      0.00%    100.00% # Request fanout histogram
system.tol2bus.snoop_fanout::9                      0      0.00%    100.00% # Request fanout histogram
system.tol2bus.snoop_fanout::10                     0      0.00%    100.00% # Request fanout histogram
system.tol2bus.snoop_fanout::11                     0      0.00%    100.00% # Request fanout histogram
system.tol2bus.snoop_fanout::12                     0      0.00%    100.00% # Request fanout histogram
system.tol2bus.snoop_fanout::13                     0      0.00%    100.00% # Request fanout histogram
system.tol2bus.snoop_fanout::14                     0      0.00%    100.00% # Request fanout histogram
system.tol2bus.snoop_fanout::15                     0      0.00%    100.00% # Request fanout histogram
system.tol2bus.snoop_fanout::16                     0      0.00%    100.00% # Request fanout histogram
system.tol2bus.snoop_fanout::overflows              0      0.00%    100.00% # Request fanout histogram
system.tol2bus.snoop_fanout::min_value              0                       # Request fanout histogram
system.tol2bus.snoop_fanout::max_value              1                       # Request fanout histogram
system.tol2bus.snoop_fanout::total              27150                       # Request fanout histogram
system.tol2bus.reqLayer0.occupancy           53386000                       # Layer occupancy (ticks)
system.tol2bus.reqLayer0.utilization              2.7                       # Layer utilization (%)
system.tol2bus.respLayer0.occupancy          39114998                       # Layer occupancy (ticks)
system.tol2bus.respLayer0.utilization             2.0                       # Layer utilization (%)
system.tol2bus.respLayer1.occupancy           1615990                       # Layer occupancy (ticks)
system.tol2bus.respLayer1.utilization             0.1                       # Layer utilization (%)

---------- End Simulation Statistics   ----------
