
---------- Begin Simulation Statistics ----------
sim_seconds                                  0.267411                       # Number of seconds simulated
sim_ticks                                267411155000                       # Number of ticks simulated
final_tick                               267411155000                       # Number of ticks from beginning of simulation (restored from checkpoints and never reset)
sim_freq                                 1000000000000                       # Frequency of simulated ticks
host_inst_rate                                 180116                       # Simulator instruction rate (inst/s)
host_op_rate                                   200264                       # Simulator op (including micro ops) rate (op/s)
host_tick_rate                               73235727                       # Simulator tick rate (ticks/s)
host_mem_usage                                 682628                       # Number of bytes of host memory used
host_seconds                                  3651.38                       # Real time elapsed on the host
sim_insts                                   657671931                       # Number of instructions simulated
sim_ops                                     731238331                       # Number of ops (including micro ops) simulated
system.voltage_domain.voltage                       1                       # Voltage in Volts
system.clk_domain.clock                          1000                       # Clock period in ticks
system.physmem.pwrStateResidencyTicks::UNDEFINED 267411155000                       # Cumulative time (in ticks) in various power states
system.physmem.bytes_read::cpu0.inst         53822208                       # Number of bytes read from this memory
system.physmem.bytes_read::cpu0.data         17042112                       # Number of bytes read from this memory
system.physmem.bytes_read::cpu1.inst         21019328                       # Number of bytes read from this memory
system.physmem.bytes_read::cpu1.data          7169024                       # Number of bytes read from this memory
system.physmem.bytes_read::cpu2.inst         20940928                       # Number of bytes read from this memory
system.physmem.bytes_read::cpu2.data         11008256                       # Number of bytes read from this memory
system.physmem.bytes_read::cpu3.inst         18595584                       # Number of bytes read from this memory
system.physmem.bytes_read::cpu3.data         11261376                       # Number of bytes read from this memory
system.physmem.bytes_read::total            160858816                       # Number of bytes read from this memory
system.physmem.bytes_inst_read::cpu0.inst     53822208                       # Number of instructions bytes read from this memory
system.physmem.bytes_inst_read::cpu1.inst     21019328                       # Number of instructions bytes read from this memory
system.physmem.bytes_inst_read::cpu2.inst     20940928                       # Number of instructions bytes read from this memory
system.physmem.bytes_inst_read::cpu3.inst     18595584                       # Number of instructions bytes read from this memory
system.physmem.bytes_inst_read::total       114378048                       # Number of instructions bytes read from this memory
system.physmem.bytes_written::writebacks     19039744                       # Number of bytes written to this memory
system.physmem.bytes_written::total          19039744                       # Number of bytes written to this memory
system.physmem.num_reads::cpu0.inst            840972                       # Number of read requests responded to by this memory
system.physmem.num_reads::cpu0.data            266283                       # Number of read requests responded to by this memory
system.physmem.num_reads::cpu1.inst            328427                       # Number of read requests responded to by this memory
system.physmem.num_reads::cpu1.data            112016                       # Number of read requests responded to by this memory
system.physmem.num_reads::cpu2.inst            327202                       # Number of read requests responded to by this memory
system.physmem.num_reads::cpu2.data            172004                       # Number of read requests responded to by this memory
system.physmem.num_reads::cpu3.inst            290556                       # Number of read requests responded to by this memory
system.physmem.num_reads::cpu3.data            175959                       # Number of read requests responded to by this memory
system.physmem.num_reads::total               2513419                       # Number of read requests responded to by this memory
system.physmem.num_writes::writebacks          297496                       # Number of write requests responded to by this memory
system.physmem.num_writes::total               297496                       # Number of write requests responded to by this memory
system.physmem.bw_read::cpu0.inst           201271364                       # Total read bandwidth from this memory (bytes/s)
system.physmem.bw_read::cpu0.data            63729997                       # Total read bandwidth from this memory (bytes/s)
system.physmem.bw_read::cpu1.inst            78603034                       # Total read bandwidth from this memory (bytes/s)
system.physmem.bw_read::cpu1.data            26808994                       # Total read bandwidth from this memory (bytes/s)
system.physmem.bw_read::cpu2.inst            78309852                       # Total read bandwidth from this memory (bytes/s)
system.physmem.bw_read::cpu2.data            41166031                       # Total read bandwidth from this memory (bytes/s)
system.physmem.bw_read::cpu3.inst            69539298                       # Total read bandwidth from this memory (bytes/s)
system.physmem.bw_read::cpu3.data            42112589                       # Total read bandwidth from this memory (bytes/s)
system.physmem.bw_read::total               601541159                       # Total read bandwidth from this memory (bytes/s)
system.physmem.bw_inst_read::cpu0.inst      201271364                       # Instruction read bandwidth from this memory (bytes/s)
system.physmem.bw_inst_read::cpu1.inst       78603034                       # Instruction read bandwidth from this memory (bytes/s)
system.physmem.bw_inst_read::cpu2.inst       78309852                       # Instruction read bandwidth from this memory (bytes/s)
system.physmem.bw_inst_read::cpu3.inst       69539298                       # Instruction read bandwidth from this memory (bytes/s)
system.physmem.bw_inst_read::total          427723548                       # Instruction read bandwidth from this memory (bytes/s)
system.physmem.bw_write::writebacks          71200261                       # Write bandwidth from this memory (bytes/s)
system.physmem.bw_write::total               71200261                       # Write bandwidth from this memory (bytes/s)
system.physmem.bw_total::writebacks          71200261                       # Total bandwidth to/from this memory (bytes/s)
system.physmem.bw_total::cpu0.inst          201271364                       # Total bandwidth to/from this memory (bytes/s)
system.physmem.bw_total::cpu0.data           63729997                       # Total bandwidth to/from this memory (bytes/s)
system.physmem.bw_total::cpu1.inst           78603034                       # Total bandwidth to/from this memory (bytes/s)
system.physmem.bw_total::cpu1.data           26808994                       # Total bandwidth to/from this memory (bytes/s)
system.physmem.bw_total::cpu2.inst           78309852                       # Total bandwidth to/from this memory (bytes/s)
system.physmem.bw_total::cpu2.data           41166031                       # Total bandwidth to/from this memory (bytes/s)
system.physmem.bw_total::cpu3.inst           69539298                       # Total bandwidth to/from this memory (bytes/s)
system.physmem.bw_total::cpu3.data           42112589                       # Total bandwidth to/from this memory (bytes/s)
system.physmem.bw_total::total              672741419                       # Total bandwidth to/from this memory (bytes/s)
system.pwrStateResidencyTicks::UNDEFINED 267411155000                       # Cumulative time (in ticks) in various power states
system.cpu0.branchPred.lookups               30020874                       # Number of BP lookups
system.cpu0.branchPred.condPredicted         17739979                       # Number of conditional branches predicted
system.cpu0.branchPred.condIncorrect           773455                       # Number of conditional branches incorrect
system.cpu0.branchPred.BTBLookups            16587792                       # Number of BTB lookups
system.cpu0.branchPred.BTBHits               14377122                       # Number of BTB hits
system.cpu0.branchPred.BTBCorrect                   0                       # Number of correct BTB predictions (this stat may not work properly.
system.cpu0.branchPred.BTBHitPct            86.672910                       # BTB Hit Percentage
system.cpu0.branchPred.usedRAS                3889423                       # Number of times the RAS was used to get a target.
system.cpu0.branchPred.RASInCorrect             68414                       # Number of incorrect RAS predictions.
system.cpu0.branchPred.indirectLookups         955443                       # Number of indirect predictor lookups.
system.cpu0.branchPred.indirectHits            952401                       # Number of indirect target hits.
system.cpu0.branchPred.indirectMisses            3042                       # Number of indirect misses.
system.cpu0.branchPredindirectMispredicted        12658                       # Number of mispredicted indirect branches.
system.cpu0.dstage2_mmu.stage2_tlb.walker.pwrStateResidencyTicks::UNDEFINED 267411155000                       # Cumulative time (in ticks) in various power states
system.cpu0.dstage2_mmu.stage2_tlb.walker.walks            0                       # Table walker walks requested
system.cpu0.dstage2_mmu.stage2_tlb.walker.walkRequestOrigin_Requested::Data            0                       # Table walker requests started/completed, data/inst
system.cpu0.dstage2_mmu.stage2_tlb.walker.walkRequestOrigin_Requested::Inst            0                       # Table walker requests started/completed, data/inst
system.cpu0.dstage2_mmu.stage2_tlb.walker.walkRequestOrigin_Requested::total            0                       # Table walker requests started/completed, data/inst
system.cpu0.dstage2_mmu.stage2_tlb.walker.walkRequestOrigin_Completed::Data            0                       # Table walker requests started/completed, data/inst
system.cpu0.dstage2_mmu.stage2_tlb.walker.walkRequestOrigin_Completed::Inst            0                       # Table walker requests started/completed, data/inst
system.cpu0.dstage2_mmu.stage2_tlb.walker.walkRequestOrigin_Completed::total            0                       # Table walker requests started/completed, data/inst
system.cpu0.dstage2_mmu.stage2_tlb.walker.walkRequestOrigin::total            0                       # Table walker requests started/completed, data/inst
system.cpu0.dstage2_mmu.stage2_tlb.inst_hits            0                       # ITB inst hits
system.cpu0.dstage2_mmu.stage2_tlb.inst_misses            0                       # ITB inst misses
system.cpu0.dstage2_mmu.stage2_tlb.read_hits            0                       # DTB read hits
system.cpu0.dstage2_mmu.stage2_tlb.read_misses            0                       # DTB read misses
system.cpu0.dstage2_mmu.stage2_tlb.write_hits            0                       # DTB write hits
system.cpu0.dstage2_mmu.stage2_tlb.write_misses            0                       # DTB write misses
system.cpu0.dstage2_mmu.stage2_tlb.flush_tlb            0                       # Number of times complete TLB was flushed
system.cpu0.dstage2_mmu.stage2_tlb.flush_tlb_mva            0                       # Number of times TLB was flushed by MVA
system.cpu0.dstage2_mmu.stage2_tlb.flush_tlb_mva_asid            0                       # Number of times TLB was flushed by MVA & ASID
system.cpu0.dstage2_mmu.stage2_tlb.flush_tlb_asid            0                       # Number of times TLB was flushed by ASID
system.cpu0.dstage2_mmu.stage2_tlb.flush_entries            0                       # Number of entries that have been flushed from TLB
system.cpu0.dstage2_mmu.stage2_tlb.align_faults            0                       # Number of TLB faults due to alignment restrictions
system.cpu0.dstage2_mmu.stage2_tlb.prefetch_faults            0                       # Number of TLB faults due to prefetch
system.cpu0.dstage2_mmu.stage2_tlb.domain_faults            0                       # Number of TLB faults due to domain restrictions
system.cpu0.dstage2_mmu.stage2_tlb.perms_faults            0                       # Number of TLB faults due to permissions restrictions
system.cpu0.dstage2_mmu.stage2_tlb.read_accesses            0                       # DTB read accesses
system.cpu0.dstage2_mmu.stage2_tlb.write_accesses            0                       # DTB write accesses
system.cpu0.dstage2_mmu.stage2_tlb.inst_accesses            0                       # ITB inst accesses
system.cpu0.dstage2_mmu.stage2_tlb.hits             0                       # DTB hits
system.cpu0.dstage2_mmu.stage2_tlb.misses            0                       # DTB misses
system.cpu0.dstage2_mmu.stage2_tlb.accesses            0                       # DTB accesses
system.cpu0.dtb.walker.pwrStateResidencyTicks::UNDEFINED 267411155000                       # Cumulative time (in ticks) in various power states
system.cpu0.dtb.walker.walks                        0                       # Table walker walks requested
system.cpu0.dtb.walker.walkRequestOrigin_Requested::Data            0                       # Table walker requests started/completed, data/inst
system.cpu0.dtb.walker.walkRequestOrigin_Requested::Inst            0                       # Table walker requests started/completed, data/inst
system.cpu0.dtb.walker.walkRequestOrigin_Requested::total            0                       # Table walker requests started/completed, data/inst
system.cpu0.dtb.walker.walkRequestOrigin_Completed::Data            0                       # Table walker requests started/completed, data/inst
system.cpu0.dtb.walker.walkRequestOrigin_Completed::Inst            0                       # Table walker requests started/completed, data/inst
system.cpu0.dtb.walker.walkRequestOrigin_Completed::total            0                       # Table walker requests started/completed, data/inst
system.cpu0.dtb.walker.walkRequestOrigin::total            0                       # Table walker requests started/completed, data/inst
system.cpu0.dtb.inst_hits                           0                       # ITB inst hits
system.cpu0.dtb.inst_misses                         0                       # ITB inst misses
system.cpu0.dtb.read_hits                           0                       # DTB read hits
system.cpu0.dtb.read_misses                         0                       # DTB read misses
system.cpu0.dtb.write_hits                          0                       # DTB write hits
system.cpu0.dtb.write_misses                        0                       # DTB write misses
system.cpu0.dtb.flush_tlb                           0                       # Number of times complete TLB was flushed
system.cpu0.dtb.flush_tlb_mva                       0                       # Number of times TLB was flushed by MVA
system.cpu0.dtb.flush_tlb_mva_asid                  0                       # Number of times TLB was flushed by MVA & ASID
system.cpu0.dtb.flush_tlb_asid                      0                       # Number of times TLB was flushed by ASID
system.cpu0.dtb.flush_entries                       0                       # Number of entries that have been flushed from TLB
system.cpu0.dtb.align_faults                        0                       # Number of TLB faults due to alignment restrictions
system.cpu0.dtb.prefetch_faults                     0                       # Number of TLB faults due to prefetch
system.cpu0.dtb.domain_faults                       0                       # Number of TLB faults due to domain restrictions
system.cpu0.dtb.perms_faults                        0                       # Number of TLB faults due to permissions restrictions
system.cpu0.dtb.read_accesses                       0                       # DTB read accesses
system.cpu0.dtb.write_accesses                      0                       # DTB write accesses
system.cpu0.dtb.inst_accesses                       0                       # ITB inst accesses
system.cpu0.dtb.hits                                0                       # DTB hits
system.cpu0.dtb.misses                              0                       # DTB misses
system.cpu0.dtb.accesses                            0                       # DTB accesses
system.cpu0.istage2_mmu.stage2_tlb.walker.pwrStateResidencyTicks::UNDEFINED 267411155000                       # Cumulative time (in ticks) in various power states
system.cpu0.istage2_mmu.stage2_tlb.walker.walks            0                       # Table walker walks requested
system.cpu0.istage2_mmu.stage2_tlb.walker.walkRequestOrigin_Requested::Data            0                       # Table walker requests started/completed, data/inst
system.cpu0.istage2_mmu.stage2_tlb.walker.walkRequestOrigin_Requested::Inst            0                       # Table walker requests started/completed, data/inst
system.cpu0.istage2_mmu.stage2_tlb.walker.walkRequestOrigin_Requested::total            0                       # Table walker requests started/completed, data/inst
system.cpu0.istage2_mmu.stage2_tlb.walker.walkRequestOrigin_Completed::Data            0                       # Table walker requests started/completed, data/inst
system.cpu0.istage2_mmu.stage2_tlb.walker.walkRequestOrigin_Completed::Inst            0                       # Table walker requests started/completed, data/inst
system.cpu0.istage2_mmu.stage2_tlb.walker.walkRequestOrigin_Completed::total            0                       # Table walker requests started/completed, data/inst
system.cpu0.istage2_mmu.stage2_tlb.walker.walkRequestOrigin::total            0                       # Table walker requests started/completed, data/inst
system.cpu0.istage2_mmu.stage2_tlb.inst_hits            0                       # ITB inst hits
system.cpu0.istage2_mmu.stage2_tlb.inst_misses            0                       # ITB inst misses
system.cpu0.istage2_mmu.stage2_tlb.read_hits            0                       # DTB read hits
system.cpu0.istage2_mmu.stage2_tlb.read_misses            0                       # DTB read misses
system.cpu0.istage2_mmu.stage2_tlb.write_hits            0                       # DTB write hits
system.cpu0.istage2_mmu.stage2_tlb.write_misses            0                       # DTB write misses
system.cpu0.istage2_mmu.stage2_tlb.flush_tlb            0                       # Number of times complete TLB was flushed
system.cpu0.istage2_mmu.stage2_tlb.flush_tlb_mva            0                       # Number of times TLB was flushed by MVA
system.cpu0.istage2_mmu.stage2_tlb.flush_tlb_mva_asid            0                       # Number of times TLB was flushed by MVA & ASID
system.cpu0.istage2_mmu.stage2_tlb.flush_tlb_asid            0                       # Number of times TLB was flushed by ASID
system.cpu0.istage2_mmu.stage2_tlb.flush_entries            0                       # Number of entries that have been flushed from TLB
system.cpu0.istage2_mmu.stage2_tlb.align_faults            0                       # Number of TLB faults due to alignment restrictions
system.cpu0.istage2_mmu.stage2_tlb.prefetch_faults            0                       # Number of TLB faults due to prefetch
system.cpu0.istage2_mmu.stage2_tlb.domain_faults            0                       # Number of TLB faults due to domain restrictions
system.cpu0.istage2_mmu.stage2_tlb.perms_faults            0                       # Number of TLB faults due to permissions restrictions
system.cpu0.istage2_mmu.stage2_tlb.read_accesses            0                       # DTB read accesses
system.cpu0.istage2_mmu.stage2_tlb.write_accesses            0                       # DTB write accesses
system.cpu0.istage2_mmu.stage2_tlb.inst_accesses            0                       # ITB inst accesses
system.cpu0.istage2_mmu.stage2_tlb.hits             0                       # DTB hits
system.cpu0.istage2_mmu.stage2_tlb.misses            0                       # DTB misses
system.cpu0.istage2_mmu.stage2_tlb.accesses            0                       # DTB accesses
system.cpu0.itb.walker.pwrStateResidencyTicks::UNDEFINED 267411155000                       # Cumulative time (in ticks) in various power states
system.cpu0.itb.walker.walks                        0                       # Table walker walks requested
system.cpu0.itb.walker.walkRequestOrigin_Requested::Data            0                       # Table walker requests started/completed, data/inst
system.cpu0.itb.walker.walkRequestOrigin_Requested::Inst            0                       # Table walker requests started/completed, data/inst
system.cpu0.itb.walker.walkRequestOrigin_Requested::total            0                       # Table walker requests started/completed, data/inst
system.cpu0.itb.walker.walkRequestOrigin_Completed::Data            0                       # Table walker requests started/completed, data/inst
system.cpu0.itb.walker.walkRequestOrigin_Completed::Inst            0                       # Table walker requests started/completed, data/inst
system.cpu0.itb.walker.walkRequestOrigin_Completed::total            0                       # Table walker requests started/completed, data/inst
system.cpu0.itb.walker.walkRequestOrigin::total            0                       # Table walker requests started/completed, data/inst
system.cpu0.itb.inst_hits                           0                       # ITB inst hits
system.cpu0.itb.inst_misses                         0                       # ITB inst misses
system.cpu0.itb.read_hits                           0                       # DTB read hits
system.cpu0.itb.read_misses                         0                       # DTB read misses
system.cpu0.itb.write_hits                          0                       # DTB write hits
system.cpu0.itb.write_misses                        0                       # DTB write misses
system.cpu0.itb.flush_tlb                           0                       # Number of times complete TLB was flushed
system.cpu0.itb.flush_tlb_mva                       0                       # Number of times TLB was flushed by MVA
system.cpu0.itb.flush_tlb_mva_asid                  0                       # Number of times TLB was flushed by MVA & ASID
system.cpu0.itb.flush_tlb_asid                      0                       # Number of times TLB was flushed by ASID
system.cpu0.itb.flush_entries                       0                       # Number of entries that have been flushed from TLB
system.cpu0.itb.align_faults                        0                       # Number of TLB faults due to alignment restrictions
system.cpu0.itb.prefetch_faults                     0                       # Number of TLB faults due to prefetch
system.cpu0.itb.domain_faults                       0                       # Number of TLB faults due to domain restrictions
system.cpu0.itb.perms_faults                        0                       # Number of TLB faults due to permissions restrictions
system.cpu0.itb.read_accesses                       0                       # DTB read accesses
system.cpu0.itb.write_accesses                      0                       # DTB write accesses
system.cpu0.itb.inst_accesses                       0                       # ITB inst accesses
system.cpu0.itb.hits                                0                       # DTB hits
system.cpu0.itb.misses                              0                       # DTB misses
system.cpu0.itb.accesses                            0                       # DTB accesses
system.cpu0.workload.num_syscalls              114319                       # Number of system calls
system.cpu0.pwrStateResidencyTicks::ON   267411155000                       # Cumulative time (in ticks) in various power states
system.cpu0.numCycles                       267411156                       # number of cpu cycles simulated
system.cpu0.numWorkItemsStarted                     0                       # number of work items this cpu started
system.cpu0.numWorkItemsCompleted                   0                       # number of work items this cpu completed
system.cpu0.fetch.icacheStallCycles         130859204                       # Number of cycles fetch is stalled on an Icache miss
system.cpu0.fetch.Insts                     170695109                       # Number of instructions fetch has processed
system.cpu0.fetch.Branches                   30020874                       # Number of branches that fetch encountered
system.cpu0.fetch.predictedBranches          19218946                       # Number of branches that fetch has predicted taken
system.cpu0.fetch.Cycles                    104790322                       # Number of cycles fetch has run and was not squashing or blocked
system.cpu0.fetch.SquashCycles                1554963                       # Number of cycles fetch has spent squashing
system.cpu0.fetch.MiscStallCycles                   9                       # Number of cycles fetch has spent waiting on interrupts, or bad addresses, or out of MSHRs
system.cpu0.fetch.PendingTrapStallCycles          301                       # Number of stall cycles due to pending traps
system.cpu0.fetch.IcacheWaitRetryStallCycles            3                       # Number of stall cycles due to full MSHR
system.cpu0.fetch.CacheLines                 24069009                       # Number of cache lines fetched
system.cpu0.fetch.IcacheSquashes               409496                       # Number of outstanding Icache misses that were squashed
system.cpu0.fetch.rateDist::samples         236427320                       # Number of instructions fetched each cycle (Total)
system.cpu0.fetch.rateDist::mean             0.813645                       # Number of instructions fetched each cycle (Total)
system.cpu0.fetch.rateDist::stdev            0.950150                       # Number of instructions fetched each cycle (Total)
system.cpu0.fetch.rateDist::underflows              0      0.00%      0.00% # Number of instructions fetched each cycle (Total)
system.cpu0.fetch.rateDist::0               132856602     56.19%     56.19% # Number of instructions fetched each cycle (Total)
system.cpu0.fetch.rateDist::1                14773489      6.25%     62.44% # Number of instructions fetched each cycle (Total)
system.cpu0.fetch.rateDist::2                88797229     37.56%    100.00% # Number of instructions fetched each cycle (Total)
system.cpu0.fetch.rateDist::overflows               0      0.00%    100.00% # Number of instructions fetched each cycle (Total)
system.cpu0.fetch.rateDist::min_value               0                       # Number of instructions fetched each cycle (Total)
system.cpu0.fetch.rateDist::max_value               2                       # Number of instructions fetched each cycle (Total)
system.cpu0.fetch.rateDist::total           236427320                       # Number of instructions fetched each cycle (Total)
system.cpu0.fetch.branchRate                 0.112265                       # Number of branch fetches per cycle
system.cpu0.fetch.rate                       0.638325                       # Number of inst fetches per cycle
system.cpu0.decode.IdleCycles               129495702                       # Number of cycles decode is idle
system.cpu0.decode.BlockedCycles              3276727                       # Number of cycles decode is blocked
system.cpu0.decode.RunCycles                101667200                       # Number of cycles decode is running
system.cpu0.decode.UnblockCycles              1269812                       # Number of cycles decode is unblocking
system.cpu0.decode.SquashCycles                717879                       # Number of cycles decode is squashing
system.cpu0.decode.BranchResolved             8654398                       # Number of times decode resolved a branch
system.cpu0.decode.BranchMispred                60210                       # Number of times decode detected a branch misprediction
system.cpu0.decode.DecodedInsts             191245402                       # Number of instructions handled by decode
system.cpu0.decode.SquashedInsts                82569                       # Number of squashed instructions handled by decode
system.cpu0.rename.SquashCycles                717879                       # Number of cycles rename is squashing
system.cpu0.rename.IdleCycles               130030301                       # Number of cycles rename is idle
system.cpu0.rename.BlockCycles                1130949                       # Number of cycles rename is blocking
system.cpu0.rename.serializeStallCycles       1255903                       # count of cycles rename stalled for serializing inst
system.cpu0.rename.RunCycles                102361486                       # Number of cycles rename is running
system.cpu0.rename.UnblockCycles               930802                       # Number of cycles rename is unblocking
system.cpu0.rename.RenamedInsts             190612933                       # Number of instructions processed by rename
system.cpu0.rename.IQFullEvents                634767                       # Number of times rename has blocked due to IQ full
system.cpu0.rename.LQFullEvents                 97468                       # Number of times rename has blocked due to LQ full
system.cpu0.rename.SQFullEvents                 14398                       # Number of times rename has blocked due to SQ full
system.cpu0.rename.RenamedOperands          240030489                       # Number of destination operands rename has renamed
system.cpu0.rename.RenameLookups            882275667                       # Number of register rename lookups that rename has made
system.cpu0.rename.int_rename_lookups       244621006                       # Number of integer rename lookups
system.cpu0.rename.fp_rename_lookups               16                       # Number of floating rename lookups
system.cpu0.rename.CommittedMaps            224769161                       # Number of HB maps that are committed
system.cpu0.rename.UndoneMaps                15261328                       # Number of HB maps that are undone due to squashing
system.cpu0.rename.serializingInsts             20250                       # count of serializing insts renamed
system.cpu0.rename.tempSerializingInsts          3534                       # count of temporary serializing insts renamed
system.cpu0.rename.skidInsts                   950689                       # count of insts added to the skid buffer
system.cpu0.memDep0.insertedLoads            24297895                       # Number of loads inserted to the mem dependence unit.
system.cpu0.memDep0.insertedStores           14963975                       # Number of stores inserted to the mem dependence unit.
system.cpu0.memDep0.conflictingLoads          2937890                       # Number of conflicting loads.
system.cpu0.memDep0.conflictingStores         1931379                       # Number of conflicting stores.
system.cpu0.iq.iqInstsAdded                 189278060                       # Number of instructions added to the IQ (excludes non-spec)
system.cpu0.iq.iqNonSpecInstsAdded               6087                       # Number of non-speculative instructions added to the IQ
system.cpu0.iq.iqInstsIssued                182324174                       # Number of instructions issued
system.cpu0.iq.iqSquashedInstsIssued          1372472                       # Number of squashed instructions issued
system.cpu0.iq.iqSquashedInstsExamined        9093806                       # Number of squashed instructions iterated over during squash; mainly for profiling
system.cpu0.iq.iqSquashedOperandsExamined     32355744                       # Number of squashed operands that are examined and possibly removed from graph
system.cpu0.iq.iqSquashedNonSpecRemoved           526                       # Number of squashed non-spec instructions that were removed
system.cpu0.iq.issued_per_cycle::samples    236427320                       # Number of insts issued each cycle
system.cpu0.iq.issued_per_cycle::mean        0.771164                       # Number of insts issued each cycle
system.cpu0.iq.issued_per_cycle::stdev       0.654017                       # Number of insts issued each cycle
system.cpu0.iq.issued_per_cycle::underflows            0      0.00%      0.00% # Number of insts issued each cycle
system.cpu0.iq.issued_per_cycle::0           83806423     35.45%     35.45% # Number of insts issued each cycle
system.cpu0.iq.issued_per_cycle::1          122917620     51.99%     87.44% # Number of insts issued each cycle
system.cpu0.iq.issued_per_cycle::2           29703277     12.56%    100.00% # Number of insts issued each cycle
system.cpu0.iq.issued_per_cycle::overflows            0      0.00%    100.00% # Number of insts issued each cycle
system.cpu0.iq.issued_per_cycle::min_value            0                       # Number of insts issued each cycle
system.cpu0.iq.issued_per_cycle::max_value            2                       # Number of insts issued each cycle
system.cpu0.iq.issued_per_cycle::total      236427320                       # Number of insts issued each cycle
system.cpu0.iq.fu_full::No_OpClass                  0      0.00%      0.00% # attempts to use FU when none available
system.cpu0.iq.fu_full::IntAlu               85815240     92.49%     92.49% # attempts to use FU when none available
system.cpu0.iq.fu_full::IntMult                    37      0.00%     92.49% # attempts to use FU when none available
system.cpu0.iq.fu_full::IntDiv                      0      0.00%     92.49% # attempts to use FU when none available
system.cpu0.iq.fu_full::FloatAdd                    0      0.00%     92.49% # attempts to use FU when none available
system.cpu0.iq.fu_full::FloatCmp                    0      0.00%     92.49% # attempts to use FU when none available
system.cpu0.iq.fu_full::FloatCvt                    0      0.00%     92.49% # attempts to use FU when none available
system.cpu0.iq.fu_full::FloatMult                   0      0.00%     92.49% # attempts to use FU when none available
system.cpu0.iq.fu_full::FloatMultAcc                0      0.00%     92.49% # attempts to use FU when none available
system.cpu0.iq.fu_full::FloatDiv                    0      0.00%     92.49% # attempts to use FU when none available
system.cpu0.iq.fu_full::FloatMisc                   0      0.00%     92.49% # attempts to use FU when none available
system.cpu0.iq.fu_full::FloatSqrt                   0      0.00%     92.49% # attempts to use FU when none available
system.cpu0.iq.fu_full::SimdAdd                     0      0.00%     92.49% # attempts to use FU when none available
system.cpu0.iq.fu_full::SimdAddAcc                  0      0.00%     92.49% # attempts to use FU when none available
system.cpu0.iq.fu_full::SimdAlu                     0      0.00%     92.49% # attempts to use FU when none available
system.cpu0.iq.fu_full::SimdCmp                     0      0.00%     92.49% # attempts to use FU when none available
system.cpu0.iq.fu_full::SimdCvt                     0      0.00%     92.49% # attempts to use FU when none available
system.cpu0.iq.fu_full::SimdMisc                    0      0.00%     92.49% # attempts to use FU when none available
system.cpu0.iq.fu_full::SimdMult                    0      0.00%     92.49% # attempts to use FU when none available
system.cpu0.iq.fu_full::SimdMultAcc                 0      0.00%     92.49% # attempts to use FU when none available
system.cpu0.iq.fu_full::SimdShift                   0      0.00%     92.49% # attempts to use FU when none available
system.cpu0.iq.fu_full::SimdShiftAcc                0      0.00%     92.49% # attempts to use FU when none available
system.cpu0.iq.fu_full::SimdSqrt                    0      0.00%     92.49% # attempts to use FU when none available
system.cpu0.iq.fu_full::SimdFloatAdd                0      0.00%     92.49% # attempts to use FU when none available
system.cpu0.iq.fu_full::SimdFloatAlu                0      0.00%     92.49% # attempts to use FU when none available
system.cpu0.iq.fu_full::SimdFloatCmp                0      0.00%     92.49% # attempts to use FU when none available
system.cpu0.iq.fu_full::SimdFloatCvt                0      0.00%     92.49% # attempts to use FU when none available
system.cpu0.iq.fu_full::SimdFloatDiv                0      0.00%     92.49% # attempts to use FU when none available
system.cpu0.iq.fu_full::SimdFloatMisc               0      0.00%     92.49% # attempts to use FU when none available
system.cpu0.iq.fu_full::SimdFloatMult               0      0.00%     92.49% # attempts to use FU when none available
system.cpu0.iq.fu_full::SimdFloatMultAcc            0      0.00%     92.49% # attempts to use FU when none available
system.cpu0.iq.fu_full::SimdFloatSqrt               0      0.00%     92.49% # attempts to use FU when none available
system.cpu0.iq.fu_full::MemRead               4791648      5.16%     97.65% # attempts to use FU when none available
system.cpu0.iq.fu_full::MemWrite              2177944      2.35%    100.00% # attempts to use FU when none available
system.cpu0.iq.fu_full::FloatMemRead                0      0.00%    100.00% # attempts to use FU when none available
system.cpu0.iq.fu_full::FloatMemWrite               0      0.00%    100.00% # attempts to use FU when none available
system.cpu0.iq.fu_full::IprAccess                   0      0.00%    100.00% # attempts to use FU when none available
system.cpu0.iq.fu_full::InstPrefetch                0      0.00%    100.00% # attempts to use FU when none available
system.cpu0.iq.FU_type_0::No_OpClass                0      0.00%      0.00% # Type of FU issued
system.cpu0.iq.FU_type_0::IntAlu            142544461     78.18%     78.18% # Type of FU issued
system.cpu0.iq.FU_type_0::IntMult              989402      0.54%     78.72% # Type of FU issued
system.cpu0.iq.FU_type_0::IntDiv                    0      0.00%     78.72% # Type of FU issued
system.cpu0.iq.FU_type_0::FloatAdd                  0      0.00%     78.72% # Type of FU issued
system.cpu0.iq.FU_type_0::FloatCmp                  0      0.00%     78.72% # Type of FU issued
system.cpu0.iq.FU_type_0::FloatCvt                  0      0.00%     78.72% # Type of FU issued
system.cpu0.iq.FU_type_0::FloatMult                 0      0.00%     78.72% # Type of FU issued
system.cpu0.iq.FU_type_0::FloatMultAcc              0      0.00%     78.72% # Type of FU issued
system.cpu0.iq.FU_type_0::FloatDiv                  0      0.00%     78.72% # Type of FU issued
system.cpu0.iq.FU_type_0::FloatMisc                 0      0.00%     78.72% # Type of FU issued
system.cpu0.iq.FU_type_0::FloatSqrt                 0      0.00%     78.72% # Type of FU issued
system.cpu0.iq.FU_type_0::SimdAdd                   0      0.00%     78.72% # Type of FU issued
system.cpu0.iq.FU_type_0::SimdAddAcc                0      0.00%     78.72% # Type of FU issued
system.cpu0.iq.FU_type_0::SimdAlu                   0      0.00%     78.72% # Type of FU issued
system.cpu0.iq.FU_type_0::SimdCmp                   0      0.00%     78.72% # Type of FU issued
system.cpu0.iq.FU_type_0::SimdCvt                   0      0.00%     78.72% # Type of FU issued
system.cpu0.iq.FU_type_0::SimdMisc                  0      0.00%     78.72% # Type of FU issued
system.cpu0.iq.FU_type_0::SimdMult                  0      0.00%     78.72% # Type of FU issued
system.cpu0.iq.FU_type_0::SimdMultAcc               0      0.00%     78.72% # Type of FU issued
system.cpu0.iq.FU_type_0::SimdShift                 0      0.00%     78.72% # Type of FU issued
system.cpu0.iq.FU_type_0::SimdShiftAcc              0      0.00%     78.72% # Type of FU issued
system.cpu0.iq.FU_type_0::SimdSqrt                  0      0.00%     78.72% # Type of FU issued
system.cpu0.iq.FU_type_0::SimdFloatAdd              0      0.00%     78.72% # Type of FU issued
system.cpu0.iq.FU_type_0::SimdFloatAlu              0      0.00%     78.72% # Type of FU issued
system.cpu0.iq.FU_type_0::SimdFloatCmp              0      0.00%     78.72% # Type of FU issued
system.cpu0.iq.FU_type_0::SimdFloatCvt              0      0.00%     78.72% # Type of FU issued
system.cpu0.iq.FU_type_0::SimdFloatDiv              0      0.00%     78.72% # Type of FU issued
system.cpu0.iq.FU_type_0::SimdFloatMisc         16714      0.01%     78.73% # Type of FU issued
system.cpu0.iq.FU_type_0::SimdFloatMult             0      0.00%     78.73% # Type of FU issued
system.cpu0.iq.FU_type_0::SimdFloatMultAcc            0      0.00%     78.73% # Type of FU issued
system.cpu0.iq.FU_type_0::SimdFloatSqrt             0      0.00%     78.73% # Type of FU issued
system.cpu0.iq.FU_type_0::MemRead            23964069     13.14%     91.88% # Type of FU issued
system.cpu0.iq.FU_type_0::MemWrite           14809512      8.12%    100.00% # Type of FU issued
system.cpu0.iq.FU_type_0::FloatMemRead              0      0.00%    100.00% # Type of FU issued
system.cpu0.iq.FU_type_0::FloatMemWrite            16      0.00%    100.00% # Type of FU issued
system.cpu0.iq.FU_type_0::IprAccess                 0      0.00%    100.00% # Type of FU issued
system.cpu0.iq.FU_type_0::InstPrefetch              0      0.00%    100.00% # Type of FU issued
system.cpu0.iq.FU_type_0::total             182324174                       # Type of FU issued
system.cpu0.iq.rate                          0.681812                       # Inst issue rate
system.cpu0.iq.fu_busy_cnt                   92784869                       # FU busy when requested
system.cpu0.iq.fu_busy_rate                  0.508901                       # FU busy rate (busy events/executed inst)
system.cpu0.iq.int_inst_queue_reads         695232977                       # Number of integer instruction queue reads
system.cpu0.iq.int_inst_queue_writes        198380957                       # Number of integer instruction queue writes
system.cpu0.iq.int_inst_queue_wakeup_accesses    181795016                       # Number of integer instruction queue wakeup accesses
system.cpu0.iq.fp_inst_queue_reads                 32                       # Number of floating instruction queue reads
system.cpu0.iq.fp_inst_queue_writes                16                       # Number of floating instruction queue writes
system.cpu0.iq.fp_inst_queue_wakeup_accesses           16                       # Number of floating instruction queue wakeup accesses
system.cpu0.iq.int_alu_accesses             275109027                       # Number of integer alu accesses
system.cpu0.iq.fp_alu_accesses                     16                       # Number of floating point alu accesses
system.cpu0.iew.lsq.thread0.forwLoads         2835609                       # Number of loads that had data forwarded from stores
system.cpu0.iew.lsq.thread0.invAddrLoads            0                       # Number of loads ignored due to an invalid address
system.cpu0.iew.lsq.thread0.squashedLoads       797069                       # Number of loads squashed
system.cpu0.iew.lsq.thread0.ignoredResponses         1096                       # Number of memory responses ignored because the instruction is squashed
system.cpu0.iew.lsq.thread0.memOrderViolation         3111                       # Number of memory ordering violations
system.cpu0.iew.lsq.thread0.squashedStores       279892                       # Number of stores squashed
system.cpu0.iew.lsq.thread0.invAddrSwpfs            0                       # Number of software prefetches ignored due to an invalid address
system.cpu0.iew.lsq.thread0.blockedLoads            0                       # Number of blocked loads due to partial load-store forwarding
system.cpu0.iew.lsq.thread0.rescheduledLoads        82486                       # Number of loads that were rescheduled
system.cpu0.iew.lsq.thread0.cacheBlocked          157                       # Number of times an access to memory failed due to the cache being blocked
system.cpu0.iew.iewIdleCycles                       0                       # Number of cycles IEW is idle
system.cpu0.iew.iewSquashCycles                717879                       # Number of cycles IEW is squashing
system.cpu0.iew.iewBlockCycles                1041888                       # Number of cycles IEW is blocking
system.cpu0.iew.iewUnblockCycles                66318                       # Number of cycles IEW is unblocking
system.cpu0.iew.iewDispatchedInsts          189284179                       # Number of instructions dispatched to IQ
system.cpu0.iew.iewDispSquashedInsts           243084                       # Number of squashed instructions skipped by dispatch
system.cpu0.iew.iewDispLoadInsts             24297895                       # Number of dispatched load instructions
system.cpu0.iew.iewDispStoreInsts            14963975                       # Number of dispatched store instructions
system.cpu0.iew.iewDispNonSpecInsts              3455                       # Number of dispatched non-speculative instructions
system.cpu0.iew.iewIQFullEvents                  6116                       # Number of times the IQ has become full, causing a stall
system.cpu0.iew.iewLSQFullEvents                19615                       # Number of times the LSQ has become full, causing a stall
system.cpu0.iew.memOrderViolationEvents          3111                       # Number of memory order violations
system.cpu0.iew.predictedTakenIncorrect        370569                       # Number of branches that were predicted taken incorrectly
system.cpu0.iew.predictedNotTakenIncorrect       371716                       # Number of branches that were predicted not taken incorrectly
system.cpu0.iew.branchMispredicts              742285                       # Number of branch mispredicts detected at execute
system.cpu0.iew.iewExecutedInsts            181957556                       # Number of executed instructions
system.cpu0.iew.iewExecLoadInsts             23912014                       # Number of load instructions executed
system.cpu0.iew.iewExecSquashedInsts           366618                       # Number of squashed instructions skipped in execute
system.cpu0.iew.exec_swp                            0                       # number of swp insts executed
system.cpu0.iew.exec_nop                           32                       # number of nop insts executed
system.cpu0.iew.exec_refs                    38699724                       # number of memory reference insts executed
system.cpu0.iew.exec_branches                28151825                       # Number of branches executed
system.cpu0.iew.exec_stores                  14787710                       # Number of stores executed
system.cpu0.iew.exec_rate                    0.680441                       # Inst execution rate
system.cpu0.iew.wb_sent                     181805064                       # cumulative count of insts sent to commit
system.cpu0.iew.wb_count                    181795032                       # cumulative count of insts written-back
system.cpu0.iew.wb_producers                111914249                       # num instructions producing a value
system.cpu0.iew.wb_consumers                231155576                       # num instructions consuming a value
system.cpu0.iew.wb_rate                      0.679833                       # insts written-back per cycle
system.cpu0.iew.wb_fanout                    0.484151                       # average fanout of values written-back
system.cpu0.commit.commitSquashedInsts        9093948                       # The number of squashed insts skipped by commit
system.cpu0.commit.commitNonSpecStalls           5561                       # The number of times commit has been forced to stall to communicate backwards
system.cpu0.commit.branchMispredicts           713853                       # The number of times a branch was mispredicted
system.cpu0.commit.committed_per_cycle::samples    234949438                       # Number of insts commited each cycle
system.cpu0.commit.committed_per_cycle::mean     0.766932                       # Number of insts commited each cycle
system.cpu0.commit.committed_per_cycle::stdev     0.913672                       # Number of insts commited each cycle
system.cpu0.commit.committed_per_cycle::underflows            0      0.00%      0.00% # Number of insts commited each cycle
system.cpu0.commit.committed_per_cycle::0     95409913     40.61%     40.61% # Number of insts commited each cycle
system.cpu0.commit.committed_per_cycle::1    116322972     49.51%     90.12% # Number of insts commited each cycle
system.cpu0.commit.committed_per_cycle::2     14874203      6.33%     96.45% # Number of insts commited each cycle
system.cpu0.commit.committed_per_cycle::3      4337141      1.85%     98.30% # Number of insts commited each cycle
system.cpu0.commit.committed_per_cycle::4      1995622      0.85%     99.14% # Number of insts commited each cycle
system.cpu0.commit.committed_per_cycle::5       230692      0.10%     99.24% # Number of insts commited each cycle
system.cpu0.commit.committed_per_cycle::6       910789      0.39%     99.63% # Number of insts commited each cycle
system.cpu0.commit.committed_per_cycle::7       437990      0.19%     99.82% # Number of insts commited each cycle
system.cpu0.commit.committed_per_cycle::8       430116      0.18%    100.00% # Number of insts commited each cycle
system.cpu0.commit.committed_per_cycle::overflows            0      0.00%    100.00% # Number of insts commited each cycle
system.cpu0.commit.committed_per_cycle::min_value            0                       # Number of insts commited each cycle
system.cpu0.commit.committed_per_cycle::max_value            8                       # Number of insts commited each cycle
system.cpu0.commit.committed_per_cycle::total    234949438                       # Number of insts commited each cycle
system.cpu0.commit.committedInsts           159622985                       # Number of instructions committed
system.cpu0.commit.committedOps             180190341                       # Number of ops (including micro ops) committed
system.cpu0.commit.swp_count                        0                       # Number of s/w prefetches committed
system.cpu0.commit.refs                      38184909                       # Number of memory references committed
system.cpu0.commit.loads                     23500826                       # Number of loads committed
system.cpu0.commit.membars                       2566                       # Number of memory barriers committed
system.cpu0.commit.branches                  27996861                       # Number of branches committed
system.cpu0.commit.fp_insts                        16                       # Number of committed floating point instructions.
system.cpu0.commit.int_insts                163717030                       # Number of committed integer instructions.
system.cpu0.commit.function_calls             4822454                       # Number of function calls committed.
system.cpu0.commit.op_class_0::No_OpClass            0      0.00%      0.00% # Class of committed instruction
system.cpu0.commit.op_class_0::IntAlu       141020432     78.26%     78.26% # Class of committed instruction
system.cpu0.commit.op_class_0::IntMult         968286      0.54%     78.80% # Class of committed instruction
system.cpu0.commit.op_class_0::IntDiv               0      0.00%     78.80% # Class of committed instruction
system.cpu0.commit.op_class_0::FloatAdd             0      0.00%     78.80% # Class of committed instruction
system.cpu0.commit.op_class_0::FloatCmp             0      0.00%     78.80% # Class of committed instruction
system.cpu0.commit.op_class_0::FloatCvt             0      0.00%     78.80% # Class of committed instruction
system.cpu0.commit.op_class_0::FloatMult            0      0.00%     78.80% # Class of committed instruction
system.cpu0.commit.op_class_0::FloatMultAcc            0      0.00%     78.80% # Class of committed instruction
system.cpu0.commit.op_class_0::FloatDiv             0      0.00%     78.80% # Class of committed instruction
system.cpu0.commit.op_class_0::FloatMisc            0      0.00%     78.80% # Class of committed instruction
system.cpu0.commit.op_class_0::FloatSqrt            0      0.00%     78.80% # Class of committed instruction
system.cpu0.commit.op_class_0::SimdAdd              0      0.00%     78.80% # Class of committed instruction
system.cpu0.commit.op_class_0::SimdAddAcc            0      0.00%     78.80% # Class of committed instruction
system.cpu0.commit.op_class_0::SimdAlu              0      0.00%     78.80% # Class of committed instruction
system.cpu0.commit.op_class_0::SimdCmp              0      0.00%     78.80% # Class of committed instruction
system.cpu0.commit.op_class_0::SimdCvt              0      0.00%     78.80% # Class of committed instruction
system.cpu0.commit.op_class_0::SimdMisc             0      0.00%     78.80% # Class of committed instruction
system.cpu0.commit.op_class_0::SimdMult             0      0.00%     78.80% # Class of committed instruction
system.cpu0.commit.op_class_0::SimdMultAcc            0      0.00%     78.80% # Class of committed instruction
system.cpu0.commit.op_class_0::SimdShift            0      0.00%     78.80% # Class of committed instruction
system.cpu0.commit.op_class_0::SimdShiftAcc            0      0.00%     78.80% # Class of committed instruction
system.cpu0.commit.op_class_0::SimdSqrt             0      0.00%     78.80% # Class of committed instruction
system.cpu0.commit.op_class_0::SimdFloatAdd            0      0.00%     78.80% # Class of committed instruction
system.cpu0.commit.op_class_0::SimdFloatAlu            0      0.00%     78.80% # Class of committed instruction
system.cpu0.commit.op_class_0::SimdFloatCmp            0      0.00%     78.80% # Class of committed instruction
system.cpu0.commit.op_class_0::SimdFloatCvt            0      0.00%     78.80% # Class of committed instruction
system.cpu0.commit.op_class_0::SimdFloatDiv            0      0.00%     78.80% # Class of committed instruction
system.cpu0.commit.op_class_0::SimdFloatMisc        16714      0.01%     78.81% # Class of committed instruction
system.cpu0.commit.op_class_0::SimdFloatMult            0      0.00%     78.81% # Class of committed instruction
system.cpu0.commit.op_class_0::SimdFloatMultAcc            0      0.00%     78.81% # Class of committed instruction
system.cpu0.commit.op_class_0::SimdFloatSqrt            0      0.00%     78.81% # Class of committed instruction
system.cpu0.commit.op_class_0::MemRead       23500826     13.04%     91.85% # Class of committed instruction
system.cpu0.commit.op_class_0::MemWrite      14684067      8.15%    100.00% # Class of committed instruction
system.cpu0.commit.op_class_0::FloatMemRead            0      0.00%    100.00% # Class of committed instruction
system.cpu0.commit.op_class_0::FloatMemWrite           16      0.00%    100.00% # Class of committed instruction
system.cpu0.commit.op_class_0::IprAccess            0      0.00%    100.00% # Class of committed instruction
system.cpu0.commit.op_class_0::InstPrefetch            0      0.00%    100.00% # Class of committed instruction
system.cpu0.commit.op_class_0::total        180190341                       # Class of committed instruction
system.cpu0.commit.bw_lim_events               430116                       # number cycles where commit BW limit reached
system.cpu0.rob.rob_reads                   423784242                       # The number of ROB reads
system.cpu0.rob.rob_writes                  380046489                       # The number of ROB writes
system.cpu0.timesIdled                        1013154                       # Number of times that the entire CPU went into an idle state and unscheduled itself
system.cpu0.idleCycles                       30983836                       # Total number of cycles that the CPU has spent unscheduled due to idling
system.cpu0.committedInsts                  159622985                       # Number of Instructions Simulated
system.cpu0.committedOps                    180190341                       # Number of Ops (including micro ops) Simulated
system.cpu0.cpi                              1.675267                       # CPI: Cycles Per Instruction
system.cpu0.cpi_total                        1.675267                       # CPI: Total CPI of All Threads
system.cpu0.ipc                              0.596920                       # IPC: Instructions Per Cycle
system.cpu0.ipc_total                        0.596920                       # IPC: Total IPC of All Threads
system.cpu0.int_regfile_reads               215174311                       # number of integer regfile reads
system.cpu0.int_regfile_writes              127996583                       # number of integer regfile writes
system.cpu0.fp_regfile_reads                      496                       # number of floating regfile reads
system.cpu0.cc_regfile_reads                623793717                       # number of cc regfile reads
system.cpu0.cc_regfile_writes                95727025                       # number of cc regfile writes
system.cpu0.misc_regfile_reads               38144383                       # number of misc regfile reads
system.cpu0.misc_regfile_writes                  3652                       # number of misc regfile writes
system.cpu0.dcache.tags.pwrStateResidencyTicks::UNDEFINED 267411155000                       # Cumulative time (in ticks) in various power states
system.cpu0.dcache.tags.replacements          1232965                       # number of replacements
system.cpu0.dcache.tags.tagsinuse           15.999010                       # Cycle average of tags in use
system.cpu0.dcache.tags.total_refs           33590485                       # Total number of references to valid blocks.
system.cpu0.dcache.tags.sampled_refs          1232981                       # Sample count of references to valid blocks.
system.cpu0.dcache.tags.avg_refs            27.243311                       # Average number of references to valid blocks.
system.cpu0.dcache.tags.warmup_cycle          2798500                       # Cycle when the warmup percentage was hit.
system.cpu0.dcache.tags.occ_blocks::cpu0.data    15.999010                       # Average occupied blocks per requestor
system.cpu0.dcache.tags.occ_percent::cpu0.data     0.999938                       # Average percentage of cache occupancy
system.cpu0.dcache.tags.occ_percent::total     0.999938                       # Average percentage of cache occupancy
system.cpu0.dcache.tags.occ_task_id_blocks::1024           16                       # Occupied blocks per task id
system.cpu0.dcache.tags.age_task_id_blocks_1024::0           16                       # Occupied blocks per task id
system.cpu0.dcache.tags.occ_task_id_percent::1024            1                       # Percentage of cache occupancy per task id
system.cpu0.dcache.tags.tag_accesses         36778870                       # Number of tag accesses
system.cpu0.dcache.tags.data_accesses        36778870                       # Number of data accesses
system.cpu0.dcache.pwrStateResidencyTicks::UNDEFINED 267411155000                       # Cumulative time (in ticks) in various power states
system.cpu0.dcache.ReadReq_hits::cpu0.data     19850703                       # number of ReadReq hits
system.cpu0.dcache.ReadReq_hits::total       19850703                       # number of ReadReq hits
system.cpu0.dcache.WriteReq_hits::cpu0.data     13736777                       # number of WriteReq hits
system.cpu0.dcache.WriteReq_hits::total      13736777                       # number of WriteReq hits
system.cpu0.dcache.LoadLockedReq_hits::cpu0.data         1470                       # number of LoadLockedReq hits
system.cpu0.dcache.LoadLockedReq_hits::total         1470                       # number of LoadLockedReq hits
system.cpu0.dcache.StoreCondReq_hits::cpu0.data         1169                       # number of StoreCondReq hits
system.cpu0.dcache.StoreCondReq_hits::total         1169                       # number of StoreCondReq hits
system.cpu0.dcache.demand_hits::cpu0.data     33587480                       # number of demand (read+write) hits
system.cpu0.dcache.demand_hits::total        33587480                       # number of demand (read+write) hits
system.cpu0.dcache.overall_hits::cpu0.data     33587480                       # number of overall hits
system.cpu0.dcache.overall_hits::total       33587480                       # number of overall hits
system.cpu0.dcache.ReadReq_misses::cpu0.data      1158849                       # number of ReadReq misses
system.cpu0.dcache.ReadReq_misses::total      1158849                       # number of ReadReq misses
system.cpu0.dcache.WriteReq_misses::cpu0.data       796078                       # number of WriteReq misses
system.cpu0.dcache.WriteReq_misses::total       796078                       # number of WriteReq misses
system.cpu0.dcache.LoadLockedReq_misses::cpu0.data          119                       # number of LoadLockedReq misses
system.cpu0.dcache.LoadLockedReq_misses::total          119                       # number of LoadLockedReq misses
system.cpu0.dcache.StoreCondReq_misses::cpu0.data          257                       # number of StoreCondReq misses
system.cpu0.dcache.StoreCondReq_misses::total          257                       # number of StoreCondReq misses
system.cpu0.dcache.demand_misses::cpu0.data      1954927                       # number of demand (read+write) misses
system.cpu0.dcache.demand_misses::total       1954927                       # number of demand (read+write) misses
system.cpu0.dcache.overall_misses::cpu0.data      1954927                       # number of overall misses
system.cpu0.dcache.overall_misses::total      1954927                       # number of overall misses
system.cpu0.dcache.ReadReq_miss_latency::cpu0.data  32554677000                       # number of ReadReq miss cycles
system.cpu0.dcache.ReadReq_miss_latency::total  32554677000                       # number of ReadReq miss cycles
system.cpu0.dcache.WriteReq_miss_latency::cpu0.data  17791390981                       # number of WriteReq miss cycles
system.cpu0.dcache.WriteReq_miss_latency::total  17791390981                       # number of WriteReq miss cycles
system.cpu0.dcache.LoadLockedReq_miss_latency::cpu0.data      1342000                       # number of LoadLockedReq miss cycles
system.cpu0.dcache.LoadLockedReq_miss_latency::total      1342000                       # number of LoadLockedReq miss cycles
system.cpu0.dcache.StoreCondReq_miss_latency::cpu0.data      2039000                       # number of StoreCondReq miss cycles
system.cpu0.dcache.StoreCondReq_miss_latency::total      2039000                       # number of StoreCondReq miss cycles
system.cpu0.dcache.StoreCondFailReq_miss_latency::cpu0.data       153000                       # number of StoreCondFailReq miss cycles
system.cpu0.dcache.StoreCondFailReq_miss_latency::total       153000                       # number of StoreCondFailReq miss cycles
system.cpu0.dcache.demand_miss_latency::cpu0.data  50346067981                       # number of demand (read+write) miss cycles
system.cpu0.dcache.demand_miss_latency::total  50346067981                       # number of demand (read+write) miss cycles
system.cpu0.dcache.overall_miss_latency::cpu0.data  50346067981                       # number of overall miss cycles
system.cpu0.dcache.overall_miss_latency::total  50346067981                       # number of overall miss cycles
system.cpu0.dcache.ReadReq_accesses::cpu0.data     21009552                       # number of ReadReq accesses(hits+misses)
system.cpu0.dcache.ReadReq_accesses::total     21009552                       # number of ReadReq accesses(hits+misses)
system.cpu0.dcache.WriteReq_accesses::cpu0.data     14532855                       # number of WriteReq accesses(hits+misses)
system.cpu0.dcache.WriteReq_accesses::total     14532855                       # number of WriteReq accesses(hits+misses)
system.cpu0.dcache.LoadLockedReq_accesses::cpu0.data         1589                       # number of LoadLockedReq accesses(hits+misses)
system.cpu0.dcache.LoadLockedReq_accesses::total         1589                       # number of LoadLockedReq accesses(hits+misses)
system.cpu0.dcache.StoreCondReq_accesses::cpu0.data         1426                       # number of StoreCondReq accesses(hits+misses)
system.cpu0.dcache.StoreCondReq_accesses::total         1426                       # number of StoreCondReq accesses(hits+misses)
system.cpu0.dcache.demand_accesses::cpu0.data     35542407                       # number of demand (read+write) accesses
system.cpu0.dcache.demand_accesses::total     35542407                       # number of demand (read+write) accesses
system.cpu0.dcache.overall_accesses::cpu0.data     35542407                       # number of overall (read+write) accesses
system.cpu0.dcache.overall_accesses::total     35542407                       # number of overall (read+write) accesses
system.cpu0.dcache.ReadReq_miss_rate::cpu0.data     0.055158                       # miss rate for ReadReq accesses
system.cpu0.dcache.ReadReq_miss_rate::total     0.055158                       # miss rate for ReadReq accesses
system.cpu0.dcache.WriteReq_miss_rate::cpu0.data     0.054778                       # miss rate for WriteReq accesses
system.cpu0.dcache.WriteReq_miss_rate::total     0.054778                       # miss rate for WriteReq accesses
system.cpu0.dcache.LoadLockedReq_miss_rate::cpu0.data     0.074890                       # miss rate for LoadLockedReq accesses
system.cpu0.dcache.LoadLockedReq_miss_rate::total     0.074890                       # miss rate for LoadLockedReq accesses
system.cpu0.dcache.StoreCondReq_miss_rate::cpu0.data     0.180224                       # miss rate for StoreCondReq accesses
system.cpu0.dcache.StoreCondReq_miss_rate::total     0.180224                       # miss rate for StoreCondReq accesses
system.cpu0.dcache.demand_miss_rate::cpu0.data     0.055003                       # miss rate for demand accesses
system.cpu0.dcache.demand_miss_rate::total     0.055003                       # miss rate for demand accesses
system.cpu0.dcache.overall_miss_rate::cpu0.data     0.055003                       # miss rate for overall accesses
system.cpu0.dcache.overall_miss_rate::total     0.055003                       # miss rate for overall accesses
system.cpu0.dcache.ReadReq_avg_miss_latency::cpu0.data 28092.251018                       # average ReadReq miss latency
system.cpu0.dcache.ReadReq_avg_miss_latency::total 28092.251018                       # average ReadReq miss latency
system.cpu0.dcache.WriteReq_avg_miss_latency::cpu0.data 22348.803737                       # average WriteReq miss latency
system.cpu0.dcache.WriteReq_avg_miss_latency::total 22348.803737                       # average WriteReq miss latency
system.cpu0.dcache.LoadLockedReq_avg_miss_latency::cpu0.data 11277.310924                       # average LoadLockedReq miss latency
system.cpu0.dcache.LoadLockedReq_avg_miss_latency::total 11277.310924                       # average LoadLockedReq miss latency
system.cpu0.dcache.StoreCondReq_avg_miss_latency::cpu0.data  7933.852140                       # average StoreCondReq miss latency
system.cpu0.dcache.StoreCondReq_avg_miss_latency::total  7933.852140                       # average StoreCondReq miss latency
system.cpu0.dcache.StoreCondFailReq_avg_miss_latency::cpu0.data          inf                       # average StoreCondFailReq miss latency
system.cpu0.dcache.StoreCondFailReq_avg_miss_latency::total          inf                       # average StoreCondFailReq miss latency
system.cpu0.dcache.demand_avg_miss_latency::cpu0.data 25753.426077                       # average overall miss latency
system.cpu0.dcache.demand_avg_miss_latency::total 25753.426077                       # average overall miss latency
system.cpu0.dcache.overall_avg_miss_latency::cpu0.data 25753.426077                       # average overall miss latency
system.cpu0.dcache.overall_avg_miss_latency::total 25753.426077                       # average overall miss latency
system.cpu0.dcache.blocked_cycles::no_mshrs         4201                       # number of cycles access was blocked
system.cpu0.dcache.blocked_cycles::no_targets            5                       # number of cycles access was blocked
system.cpu0.dcache.blocked::no_mshrs              169                       # number of cycles access was blocked
system.cpu0.dcache.blocked::no_targets              1                       # number of cycles access was blocked
system.cpu0.dcache.avg_blocked_cycles::no_mshrs    24.857988                       # average number of cycles each access was blocked
system.cpu0.dcache.avg_blocked_cycles::no_targets            5                       # average number of cycles each access was blocked
system.cpu0.dcache.writebacks::writebacks       525425                       # number of writebacks
system.cpu0.dcache.writebacks::total           525425                       # number of writebacks
system.cpu0.dcache.ReadReq_mshr_hits::cpu0.data       281612                       # number of ReadReq MSHR hits
system.cpu0.dcache.ReadReq_mshr_hits::total       281612                       # number of ReadReq MSHR hits
system.cpu0.dcache.WriteReq_mshr_hits::cpu0.data       439901                       # number of WriteReq MSHR hits
system.cpu0.dcache.WriteReq_mshr_hits::total       439901                       # number of WriteReq MSHR hits
system.cpu0.dcache.LoadLockedReq_mshr_hits::cpu0.data           25                       # number of LoadLockedReq MSHR hits
system.cpu0.dcache.LoadLockedReq_mshr_hits::total           25                       # number of LoadLockedReq MSHR hits
system.cpu0.dcache.demand_mshr_hits::cpu0.data       721513                       # number of demand (read+write) MSHR hits
system.cpu0.dcache.demand_mshr_hits::total       721513                       # number of demand (read+write) MSHR hits
system.cpu0.dcache.overall_mshr_hits::cpu0.data       721513                       # number of overall MSHR hits
system.cpu0.dcache.overall_mshr_hits::total       721513                       # number of overall MSHR hits
system.cpu0.dcache.ReadReq_mshr_misses::cpu0.data       877237                       # number of ReadReq MSHR misses
system.cpu0.dcache.ReadReq_mshr_misses::total       877237                       # number of ReadReq MSHR misses
system.cpu0.dcache.WriteReq_mshr_misses::cpu0.data       356177                       # number of WriteReq MSHR misses
system.cpu0.dcache.WriteReq_mshr_misses::total       356177                       # number of WriteReq MSHR misses
system.cpu0.dcache.LoadLockedReq_mshr_misses::cpu0.data           94                       # number of LoadLockedReq MSHR misses
system.cpu0.dcache.LoadLockedReq_mshr_misses::total           94                       # number of LoadLockedReq MSHR misses
system.cpu0.dcache.StoreCondReq_mshr_misses::cpu0.data          256                       # number of StoreCondReq MSHR misses
system.cpu0.dcache.StoreCondReq_mshr_misses::total          256                       # number of StoreCondReq MSHR misses
system.cpu0.dcache.demand_mshr_misses::cpu0.data      1233414                       # number of demand (read+write) MSHR misses
system.cpu0.dcache.demand_mshr_misses::total      1233414                       # number of demand (read+write) MSHR misses
system.cpu0.dcache.overall_mshr_misses::cpu0.data      1233414                       # number of overall MSHR misses
system.cpu0.dcache.overall_mshr_misses::total      1233414                       # number of overall MSHR misses
system.cpu0.dcache.ReadReq_mshr_miss_latency::cpu0.data  22351015500                       # number of ReadReq MSHR miss cycles
system.cpu0.dcache.ReadReq_mshr_miss_latency::total  22351015500                       # number of ReadReq MSHR miss cycles
system.cpu0.dcache.WriteReq_mshr_miss_latency::cpu0.data   7526885990                       # number of WriteReq MSHR miss cycles
system.cpu0.dcache.WriteReq_mshr_miss_latency::total   7526885990                       # number of WriteReq MSHR miss cycles
system.cpu0.dcache.LoadLockedReq_mshr_miss_latency::cpu0.data       605500                       # number of LoadLockedReq MSHR miss cycles
system.cpu0.dcache.LoadLockedReq_mshr_miss_latency::total       605500                       # number of LoadLockedReq MSHR miss cycles
system.cpu0.dcache.StoreCondReq_mshr_miss_latency::cpu0.data      1547500                       # number of StoreCondReq MSHR miss cycles
system.cpu0.dcache.StoreCondReq_mshr_miss_latency::total      1547500                       # number of StoreCondReq MSHR miss cycles
system.cpu0.dcache.StoreCondFailReq_mshr_miss_latency::cpu0.data       131000                       # number of StoreCondFailReq MSHR miss cycles
system.cpu0.dcache.StoreCondFailReq_mshr_miss_latency::total       131000                       # number of StoreCondFailReq MSHR miss cycles
system.cpu0.dcache.demand_mshr_miss_latency::cpu0.data  29877901490                       # number of demand (read+write) MSHR miss cycles
system.cpu0.dcache.demand_mshr_miss_latency::total  29877901490                       # number of demand (read+write) MSHR miss cycles
system.cpu0.dcache.overall_mshr_miss_latency::cpu0.data  29877901490                       # number of overall MSHR miss cycles
system.cpu0.dcache.overall_mshr_miss_latency::total  29877901490                       # number of overall MSHR miss cycles
system.cpu0.dcache.ReadReq_mshr_miss_rate::cpu0.data     0.041754                       # mshr miss rate for ReadReq accesses
system.cpu0.dcache.ReadReq_mshr_miss_rate::total     0.041754                       # mshr miss rate for ReadReq accesses
system.cpu0.dcache.WriteReq_mshr_miss_rate::cpu0.data     0.024508                       # mshr miss rate for WriteReq accesses
system.cpu0.dcache.WriteReq_mshr_miss_rate::total     0.024508                       # mshr miss rate for WriteReq accesses
system.cpu0.dcache.LoadLockedReq_mshr_miss_rate::cpu0.data     0.059157                       # mshr miss rate for LoadLockedReq accesses
system.cpu0.dcache.LoadLockedReq_mshr_miss_rate::total     0.059157                       # mshr miss rate for LoadLockedReq accesses
system.cpu0.dcache.StoreCondReq_mshr_miss_rate::cpu0.data     0.179523                       # mshr miss rate for StoreCondReq accesses
system.cpu0.dcache.StoreCondReq_mshr_miss_rate::total     0.179523                       # mshr miss rate for StoreCondReq accesses
system.cpu0.dcache.demand_mshr_miss_rate::cpu0.data     0.034703                       # mshr miss rate for demand accesses
system.cpu0.dcache.demand_mshr_miss_rate::total     0.034703                       # mshr miss rate for demand accesses
system.cpu0.dcache.overall_mshr_miss_rate::cpu0.data     0.034703                       # mshr miss rate for overall accesses
system.cpu0.dcache.overall_mshr_miss_rate::total     0.034703                       # mshr miss rate for overall accesses
system.cpu0.dcache.ReadReq_avg_mshr_miss_latency::cpu0.data 25478.879140                       # average ReadReq mshr miss latency
system.cpu0.dcache.ReadReq_avg_mshr_miss_latency::total 25478.879140                       # average ReadReq mshr miss latency
system.cpu0.dcache.WriteReq_avg_mshr_miss_latency::cpu0.data 21132.431319                       # average WriteReq mshr miss latency
system.cpu0.dcache.WriteReq_avg_mshr_miss_latency::total 21132.431319                       # average WriteReq mshr miss latency
system.cpu0.dcache.LoadLockedReq_avg_mshr_miss_latency::cpu0.data  6441.489362                       # average LoadLockedReq mshr miss latency
system.cpu0.dcache.LoadLockedReq_avg_mshr_miss_latency::total  6441.489362                       # average LoadLockedReq mshr miss latency
system.cpu0.dcache.StoreCondReq_avg_mshr_miss_latency::cpu0.data  6044.921875                       # average StoreCondReq mshr miss latency
system.cpu0.dcache.StoreCondReq_avg_mshr_miss_latency::total  6044.921875                       # average StoreCondReq mshr miss latency
system.cpu0.dcache.StoreCondFailReq_avg_mshr_miss_latency::cpu0.data          inf                       # average StoreCondFailReq mshr miss latency
system.cpu0.dcache.StoreCondFailReq_avg_mshr_miss_latency::total          inf                       # average StoreCondFailReq mshr miss latency
system.cpu0.dcache.demand_avg_mshr_miss_latency::cpu0.data 24223.741169                       # average overall mshr miss latency
system.cpu0.dcache.demand_avg_mshr_miss_latency::total 24223.741169                       # average overall mshr miss latency
system.cpu0.dcache.overall_avg_mshr_miss_latency::cpu0.data 24223.741169                       # average overall mshr miss latency
system.cpu0.dcache.overall_avg_mshr_miss_latency::total 24223.741169                       # average overall mshr miss latency
system.cpu0.icache.tags.pwrStateResidencyTicks::UNDEFINED 267411155000                       # Cumulative time (in ticks) in various power states
system.cpu0.icache.tags.replacements          6944271                       # number of replacements
system.cpu0.icache.tags.tagsinuse           15.999948                       # Cycle average of tags in use
system.cpu0.icache.tags.total_refs           17036338                       # Total number of references to valid blocks.
system.cpu0.icache.tags.sampled_refs          6944287                       # Sample count of references to valid blocks.
system.cpu0.icache.tags.avg_refs             2.453288                       # Average number of references to valid blocks.
system.cpu0.icache.tags.warmup_cycle          1863500                       # Cycle when the warmup percentage was hit.
system.cpu0.icache.tags.occ_blocks::cpu0.inst    15.999948                       # Average occupied blocks per requestor
system.cpu0.icache.tags.occ_percent::cpu0.inst     0.999997                       # Average percentage of cache occupancy
system.cpu0.icache.tags.occ_percent::total     0.999997                       # Average percentage of cache occupancy
system.cpu0.icache.tags.occ_task_id_blocks::1024           16                       # Occupied blocks per task id
system.cpu0.icache.tags.age_task_id_blocks_1024::0           16                       # Occupied blocks per task id
system.cpu0.icache.tags.occ_task_id_percent::1024            1                       # Percentage of cache occupancy per task id
system.cpu0.icache.tags.tag_accesses         31013296                       # Number of tag accesses
system.cpu0.icache.tags.data_accesses        31013296                       # Number of data accesses
system.cpu0.icache.pwrStateResidencyTicks::UNDEFINED 267411155000                       # Cumulative time (in ticks) in various power states
[...]
system.l2.overall_mshr_miss_rate::cpu0.inst     0.121103                       # mshr miss rate for overall accesses
system.l2.overall_mshr_miss_rate::cpu0.data     0.215971                       # mshr miss rate for overall accesses
system.l2.overall_mshr_miss_rate::cpu1.inst     0.058275                       # mshr miss rate for overall accesses
system.l2.overall_mshr_miss_rate::cpu1.data     0.137365                       # mshr miss rate for overall accesses
system.l2.overall_mshr_miss_rate::cpu2.inst     0.055250                       # mshr miss rate for overall accesses
system.l2.overall_mshr_miss_rate::cpu2.data     0.178940                       # mshr miss rate for overall accesses
system.l2.overall_mshr_miss_rate::cpu3.inst     0.055382                       # mshr miss rate for overall accesses
system.l2.overall_mshr_miss_rate::cpu3.data     0.179589                       # mshr miss rate for overall accesses
system.l2.overall_mshr_miss_rate::total      0.090612                       # mshr miss rate for overall accesses
system.l2.UpgradeReq_avg_mshr_miss_latency::cpu0.data 20642.857143                       # average UpgradeReq mshr miss latency
system.l2.UpgradeReq_avg_mshr_miss_latency::cpu1.data        20625                       # average UpgradeReq mshr miss latency
system.l2.UpgradeReq_avg_mshr_miss_latency::cpu2.data        20600                       # average UpgradeReq mshr miss latency
system.l2.UpgradeReq_avg_mshr_miss_latency::cpu3.data        21500                       # average UpgradeReq mshr miss latency
system.l2.UpgradeReq_avg_mshr_miss_latency::total        20800                       # average UpgradeReq mshr miss latency
system.l2.SCUpgradeReq_avg_mshr_miss_latency::cpu0.data 21499.875000                       # average SCUpgradeReq mshr miss latency
system.l2.SCUpgradeReq_avg_mshr_miss_latency::cpu1.data        21500                       # average SCUpgradeReq mshr miss latency
system.l2.SCUpgradeReq_avg_mshr_miss_latency::cpu2.data        21400                       # average SCUpgradeReq mshr miss latency
system.l2.SCUpgradeReq_avg_mshr_miss_latency::cpu3.data 21346.153846                       # average SCUpgradeReq mshr miss latency
system.l2.SCUpgradeReq_avg_mshr_miss_latency::total 21413.758621                       # average SCUpgradeReq mshr miss latency
system.l2.ReadExReq_avg_mshr_miss_latency::cpu0.data 51181.938602                       # average ReadExReq mshr miss latency
system.l2.ReadExReq_avg_mshr_miss_latency::cpu1.data 51285.733941                       # average ReadExReq mshr miss latency
system.l2.ReadExReq_avg_mshr_miss_latency::cpu2.data 51199.942222                       # average ReadExReq mshr miss latency
system.l2.ReadExReq_avg_mshr_miss_latency::cpu3.data 51191.814207                       # average ReadExReq mshr miss latency
system.l2.ReadExReq_avg_mshr_miss_latency::total 51203.802476                       # average ReadExReq mshr miss latency
system.l2.ReadCleanReq_avg_mshr_miss_latency::cpu0.inst 51262.499823                       # average ReadCleanReq mshr miss latency
system.l2.ReadCleanReq_avg_mshr_miss_latency::cpu1.inst 51528.692833                       # average ReadCleanReq mshr miss latency
system.l2.ReadCleanReq_avg_mshr_miss_latency::cpu2.inst 51509.437598                       # average ReadCleanReq mshr miss latency
system.l2.ReadCleanReq_avg_mshr_miss_latency::cpu3.inst 51479.580532                       # average ReadCleanReq mshr miss latency
system.l2.ReadCleanReq_avg_mshr_miss_latency::total 51391.921921                       # average ReadCleanReq mshr miss latency
system.l2.ReadSharedReq_avg_mshr_miss_latency::cpu0.data 51415.328464                       # average ReadSharedReq mshr miss latency
system.l2.ReadSharedReq_avg_mshr_miss_latency::cpu1.data 51578.010592                       # average ReadSharedReq mshr miss latency
system.l2.ReadSharedReq_avg_mshr_miss_latency::cpu2.data 51404.586576                       # average ReadSharedReq mshr miss latency
system.l2.ReadSharedReq_avg_mshr_miss_latency::cpu3.data 51398.031709                       # average ReadSharedReq mshr miss latency
system.l2.ReadSharedReq_avg_mshr_miss_latency::total 51435.177491                       # average ReadSharedReq mshr miss latency
system.l2.demand_avg_mshr_miss_latency::cpu0.inst 51262.499823                       # average overall mshr miss latency
system.l2.demand_avg_mshr_miss_latency::cpu0.data 51366.364483                       # average overall mshr miss latency
system.l2.demand_avg_mshr_miss_latency::cpu1.inst 51528.692833                       # average overall mshr miss latency
system.l2.demand_avg_mshr_miss_latency::cpu1.data 51511.636739                       # average overall mshr miss latency
system.l2.demand_avg_mshr_miss_latency::cpu2.inst 51509.437598                       # average overall mshr miss latency
system.l2.demand_avg_mshr_miss_latency::cpu2.data 51344.869887                       # average overall mshr miss latency
system.l2.demand_avg_mshr_miss_latency::cpu3.inst 51479.580532                       # average overall mshr miss latency
system.l2.demand_avg_mshr_miss_latency::cpu3.data 51332.631465                       # average overall mshr miss latency
system.l2.demand_avg_mshr_miss_latency::total 51387.178826                       # average overall mshr miss latency
system.l2.overall_avg_mshr_miss_latency::cpu0.inst 51262.499823                       # average overall mshr miss latency
system.l2.overall_avg_mshr_miss_latency::cpu0.data 51366.364483                       # average overall mshr miss latency
system.l2.overall_avg_mshr_miss_latency::cpu1.inst 51528.692833                       # average overall mshr miss latency
system.l2.overall_avg_mshr_miss_latency::cpu1.data 51511.636739                       # average overall mshr miss latency
system.l2.overall_avg_mshr_miss_latency::cpu2.inst 51509.437598                       # average overall mshr miss latency
system.l2.overall_avg_mshr_miss_latency::cpu2.data 51344.869887                       # average overall mshr miss latency
system.l2.overall_avg_mshr_miss_latency::cpu3.inst 51479.580532                       # average overall mshr miss latency
system.l2.overall_avg_mshr_miss_latency::cpu3.data 51332.631465                       # average overall mshr miss latency
system.l2.overall_avg_mshr_miss_latency::total 51387.178826                       # average overall mshr miss latency
system.membus.snoop_filter.tot_requests       4909228                       # Total number of requests made to the snoop filter.
system.membus.snoop_filter.hit_single_requests      2538603                       # Number of requests hitting in the snoop filter with a single holder of the requested data.
system.membus.snoop_filter.hit_multi_requests            0                       # Number of requests hitting in the snoop filter with multiple (>1) holders of the requested data.
system.membus.snoop_filter.tot_snoops               0                       # Total number of snoops made to the snoop filter.
system.membus.snoop_filter.hit_single_snoops            0                       # Number of snoops hitting in the snoop filter with a single holder of the requested data.
system.membus.snoop_filter.hit_multi_snoops            0                       # Number of snoops hitting in the snoop filter with multiple (>1) holders of the requested data.
system.membus.pwrStateResidencyTicks::UNDEFINED 267411155000                       # Cumulative time (in ticks) in various power states
system.membus.trans_dist::ReadResp            2326120                       # Transaction distribution
system.membus.trans_dist::WritebackDirty       297496                       # Transaction distribution
system.membus.trans_dist::CleanEvict          1915964                       # Transaction distribution
system.membus.trans_dist::UpgradeReq              157                       # Transaction distribution
system.membus.trans_dist::SCUpgradeReq            973                       # Transaction distribution
system.membus.trans_dist::ReadExReq            187302                       # Transaction distribution
system.membus.trans_dist::ReadExResp           187298                       # Transaction distribution
system.membus.trans_dist::ReadSharedReq       2326121                       # Transaction distribution
system.membus.pkt_count_system.l2.mem_side::system.physmem.port      7241431                       # Packet count per connected master and slave (bytes)
system.membus.pkt_count::total                7241431                       # Packet count per connected master and slave (bytes)
system.membus.pkt_size_system.l2.mem_side::system.physmem.port    179898496                       # Cumulative packet size per connected master and slave (bytes)
system.membus.pkt_size::total               179898496                       # Cumulative packet size per connected master and slave (bytes)
system.membus.snoops                             1079                       # Total snoops (count)
system.membus.snoopTraffic                          0                       # Total snoop traffic (bytes)
system.membus.snoop_fanout::samples           2687045                       # Request fanout histogram
system.membus.snoop_fanout::mean                    0                       # Request fanout histogram
system.membus.snoop_fanout::stdev                   0                       # Request fanout histogram
system.membus.snoop_fanout::underflows              0      0.00%      0.00% # Request fanout histogram
system.membus.snoop_fanout::0                 2687045    100.00%    100.00% # Request fanout histogram
system.membus.snoop_fanout::1                       0      0.00%    100.00% # Request fanout histogram
system.membus.snoop_fanout::overflows               0      0.00%    100.00% # Request fanout histogram
system.membus.snoop_fanout::min_value               0                       # Request fanout histogram
system.membus.snoop_fanout::max_value               0                       # Request fanout histogram
system.membus.snoop_fanout::total             2687045                       # Request fanout histogram
system.membus.reqLayer0.occupancy          7511840865                       # Layer occupancy (ticks)
system.membus.reqLayer0.utilization               2.8                       # Layer utilization (%)
system.membus.respLayer1.occupancy        12567090000                       # Layer occupancy (ticks)
system.membus.respLayer1.utilization              4.7                       # Layer utilization (%)
system.tol2bus.snoop_filter.tot_requests     55479307                       # Total number of requests made to the snoop filter.
system.tol2bus.snoop_filter.hit_single_requests     20284992                       # Number of requests hitting in the snoop filter with a single holder of the requested data.
system.tol2bus.snoop_filter.hit_multi_requests     22656105                       # Number of requests hitting in the snoop filter with multiple (>1) holders of the requested data.
system.tol2bus.snoop_filter.tot_snoops        1412703                       # Total number of snoops made to the snoop filter.
system.tol2bus.snoop_filter.hit_single_snoops      1139488                       # Number of snoops hitting in the snoop filter with a single holder of the requested data.
system.tol2bus.snoop_filter.hit_multi_snoops       273215                       # Number of snoops hitting in the snoop filter with multiple (>1) holders of the requested data.
system.tol2bus.pwrStateResidencyTicks::UNDEFINED 267411155000                       # Cumulative time (in ticks) in various power states
system.tol2bus.trans_dist::ReadResp          26806048                       # Transaction distribution
system.tol2bus.trans_dist::ReadRespWithInvalidate            1                       # Transaction distribution
system.tol2bus.trans_dist::WritebackDirty      1825997                       # Transaction distribution
system.tol2bus.trans_dist::WritebackClean     23748678                       # Transaction distribution
system.tol2bus.trans_dist::CleanEvict         5595551                       # Transaction distribution
system.tol2bus.trans_dist::UpgradeReq             239                       # Transaction distribution
system.tol2bus.trans_dist::SCUpgradeReq           991                       # Transaction distribution
system.tol2bus.trans_dist::UpgradeResp           1230                       # Transaction distribution
system.tol2bus.trans_dist::SCUpgradeFailReq           36                       # Transaction distribution
system.tol2bus.trans_dist::UpgradeFailResp           36                       # Transaction distribution
system.tol2bus.trans_dist::ReadExReq           933894                       # Transaction distribution
system.tol2bus.trans_dist::ReadExResp          933894                       # Transaction distribution
system.tol2bus.trans_dist::ReadCleanReq      23748743                       # Transaction distribution
system.tol2bus.trans_dist::ReadSharedReq      3057307                       # Transaction distribution
system.tol2bus.pkt_count_system.cpu0.icache.mem_side::system.l2.cpu_side     20832846                       # Packet count per connected master and slave (bytes)
system.tol2bus.pkt_count_system.cpu0.dcache.mem_side::system.l2.cpu_side      3699763                       # Packet count per connected master and slave (bytes)
system.tol2bus.pkt_count_system.cpu1.icache.mem_side::system.l2.cpu_side     16907387                       # Packet count per connected master and slave (bytes)
system.tol2bus.pkt_count_system.cpu1.dcache.mem_side::system.l2.cpu_side      2447287                       # Packet count per connected master and slave (bytes)
system.tol2bus.pkt_count_system.cpu2.icache.mem_side::system.l2.cpu_side     17766659                       # Packet count per connected master and slave (bytes)
system.tol2bus.pkt_count_system.cpu2.dcache.mem_side::system.l2.cpu_side      2884343                       # Packet count per connected master and slave (bytes)
system.tol2bus.pkt_count_system.cpu3.icache.mem_side::system.l2.cpu_side     15739271                       # Packet count per connected master and slave (bytes)
system.tol2bus.pkt_count_system.cpu3.dcache.mem_side::system.l2.cpu_side      2940100                       # Packet count per connected master and slave (bytes)
system.tol2bus.pkt_count::total              83217656                       # Packet count per connected master and slave (bytes)
system.tol2bus.pkt_size_system.cpu0.icache.mem_side::system.l2.cpu_side    888867712                       # Cumulative packet size per connected master and slave (bytes)
system.tol2bus.pkt_size_system.cpu0.dcache.mem_side::system.l2.cpu_side    112536512                       # Cumulative packet size per connected master and slave (bytes)
system.tol2bus.pkt_size_system.cpu1.icache.mem_side::system.l2.cpu_side    721381504                       # Cumulative packet size per connected master and slave (bytes)
system.tol2bus.pkt_size_system.cpu1.dcache.mem_side::system.l2.cpu_side     70999424                       # Cumulative packet size per connected master and slave (bytes)
system.tol2bus.pkt_size_system.cpu2.icache.mem_side::system.l2.cpu_side    758043776                       # Cumulative packet size per connected master and slave (bytes)
system.tol2bus.pkt_size_system.cpu2.dcache.mem_side::system.l2.cpu_side     85301056                       # Cumulative packet size per connected master and slave (bytes)
system.tol2bus.pkt_size_system.cpu3.icache.mem_side::system.l2.cpu_side    671541888                       # Cumulative packet size per connected master and slave (bytes)
system.tol2bus.pkt_size_system.cpu3.dcache.mem_side::system.l2.cpu_side     84312000                       # Cumulative packet size per connected master and slave (bytes)
system.tol2bus.pkt_size::total             3392983872                       # Cumulative packet size per connected master and slave (bytes)
system.tol2bus.snoops                         3434989                       # Total snoops (count)
system.tol2bus.snoopTraffic                  19153984                       # Total snoop traffic (bytes)
system.tol2bus.snoop_fanout::samples         31173339                       # Request fanout histogram
system.tol2bus.snoop_fanout::mean            0.863504                       # Request fanout histogram
system.tol2bus.snoop_fanout::stdev           0.973117                       # Request fanout histogram
system.tol2bus.snoop_fanout::underflows             0      0.00%      0.00% # Request fanout histogram
system.tol2bus.snoop_fanout::0               14557653     46.70%     46.70% # Request fanout histogram
system.tol2bus.snoop_fanout::1                8887195     28.51%     75.21% # Request fanout histogram
system.tol2bus.snoop_fanout::2                5192437     16.66%     91.86% # Request fanout histogram
system.tol2bus.snoop_fanout::3                2502377      8.03%     99.89% # Request fanout histogram
system.tol2bus.snoop_fanout::4                  31824      0.10%     99.99% # Request fanout histogram
system.tol2bus.snoop_fanout::5                    372      0.00%    100.00% # Request fanout histogram
system.tol2bus.snoop_fanout::6                    427      0.00%    100.00% # Request fanout histogram
system.tol2bus.snoop_fanout::7                   1054      0.00%    100.00% # Request fanout histogram
system.tol2bus.snoop_fanout::8                      0      0.00%    100.00% # Request fanout histogram
system.tol2bus.snoop_fanout::overflows              0      0.00%    100.00% # Request fanout histogram
system.tol2bus.snoop_fanout::min_value              0                       # Request fanout histogram
system.tol2bus.snoop_fanout::max_value              7                       # Request fanout histogram
system.tol2bus.snoop_fanout::total           31173339                       # Request fanout histogram
system.tol2bus.reqLayer0.occupancy        53016841981                       # Layer occupancy (ticks)
system.tol2bus.reqLayer0.utilization             19.8                       # Layer utilization (%)
system.tol2bus.respLayer0.occupancy       10498066091                       # Layer occupancy (ticks)
system.tol2bus.respLayer0.utilization             3.9                       # Layer utilization (%)
system.tol2bus.respLayer1.occupancy        1880968756                       # Layer occupancy (ticks)
system.tol2bus.respLayer1.utilization             0.7                       # Layer utilization (%)
system.tol2bus.respLayer4.occupancy        8532889933                       # Layer occupancy (ticks)
system.tol2bus.respLayer4.utilization             3.2                       # Layer utilization (%)
system.tol2bus.respLayer5.occupancy        1263917533                       # Layer occupancy (ticks)
system.tol2bus.respLayer5.utilization             0.5                       # Layer utilization (%)
system.tol2bus.respLayer8.occupancy        8971994103                       # Layer occupancy (ticks)
system.tol2bus.respLayer8.utilization             3.4                       # Layer utilization (%)
system.tol2bus.respLayer9.occupancy        1499803900                       # Layer occupancy (ticks)
system.tol2bus.respLayer9.utilization             0.6                       # Layer utilization (%)
system.tol2bus.respLayer12.occupancy       7954322869                       # Layer occupancy (ticks)
system.tol2bus.respLayer12.utilization            3.0                       # Layer utilization (%)
system.tol2bus.respLayer13.occupancy       1523562321                       # Layer occupancy (ticks)
system.tol2bus.respLayer13.utilization            0.6                       # Layer utilization (%)

---------- End Simulation Statistics   ----------
