
---------- Begin Simulation Statistics ----------
sim_seconds                                  0.110882                       # Number of seconds simulated
sim_ticks                                110881698000                       # Number of ticks simulated
final_tick                               110881698000                       # Number of ticks from beginning of simulation (restored from checkpoints and never reset)
sim_freq                                 1000000000000                       # Frequency of simulated ticks
host_inst_rate                                 238045                       # Simulator instruction rate (inst/s)
host_op_rate                                   263094                       # Simulator op (including micro ops) rate (op/s)
host_tick_rate                               36797979                       # Simulator tick rate (ticks/s)
host_mem_usage                                 724624                       # Number of bytes of host memory used
host_seconds                                  3013.26                       # Real time elapsed on the host
sim_insts                                   717290491                       # Number of instructions simulated
sim_ops                                     792769058                       # Number of ops (including micro ops) simulated
system.voltage_domain.voltage                       1                       # Voltage in Volts
system.clk_domain.clock                          1000                       # Clock period in ticks
system.physmem.pwrStateResidencyTicks::UNDEFINED 110881698000                       # Cumulative time (in ticks) in various power states
system.physmem.bytes_read::cpu0.inst            77056                       # Number of bytes read from this memory
system.physmem.bytes_read::cpu0.data            99520                       # Number of bytes read from this memory
system.physmem.bytes_read::cpu1.inst             2048                       # Number of bytes read from this memory
system.physmem.bytes_read::cpu1.data            47744                       # Number of bytes read from this memory
system.physmem.bytes_read::cpu2.inst             1408                       # Number of bytes read from this memory
system.physmem.bytes_read::cpu2.data            46144                       # Number of bytes read from this memory
system.physmem.bytes_read::cpu3.inst             2112                       # Number of bytes read from this memory
system.physmem.bytes_read::cpu3.data            50304                       # Number of bytes read from this memory
system.physmem.bytes_read::cpu4.inst            21632                       # Number of bytes read from this memory
system.physmem.bytes_read::cpu4.data            46976                       # Number of bytes read from this memory
system.physmem.bytes_read::cpu5.inst            37248                       # Number of bytes read from this memory
system.physmem.bytes_read::cpu5.data            44096                       # Number of bytes read from this memory
system.physmem.bytes_read::total               476288                       # Number of bytes read from this memory
system.physmem.bytes_inst_read::cpu0.inst        77056                       # Number of instructions bytes read from this memory
system.physmem.bytes_inst_read::cpu1.inst         2048                       # Number of instructions bytes read from this memory
system.physmem.bytes_inst_read::cpu2.inst         1408                       # Number of instructions bytes read from this memory
system.physmem.bytes_inst_read::cpu3.inst         2112                       # Number of instructions bytes read from this memory
system.physmem.bytes_inst_read::cpu4.inst        21632                       # Number of instructions bytes read from this memory
system.physmem.bytes_inst_read::cpu5.inst        37248                       # Number of instructions bytes read from this memory
system.physmem.bytes_inst_read::total          141504                       # Number of instructions bytes read from this memory
system.physmem.bytes_written::writebacks       115136                       # Number of bytes written to this memory
system.physmem.bytes_written::total            115136                       # Number of bytes written to this memory
system.physmem.num_reads::cpu0.inst              1204                       # Number of read requests responded to by this memory
system.physmem.num_reads::cpu0.data              1555                       # Number of read requests responded to by this memory
system.physmem.num_reads::cpu1.inst                32                       # Number of read requests responded to by this memory
system.physmem.num_reads::cpu1.data               746                       # Number of read requests responded to by this memory
system.physmem.num_reads::cpu2.inst                22                       # Number of read requests responded to by this memory
system.physmem.num_reads::cpu2.data               721                       # Number of read requests responded to by this memory
system.physmem.num_reads::cpu3.inst                33                       # Number of read requests responded to by this memory
system.physmem.num_reads::cpu3.data               786                       # Number of read requests responded to by this memory
system.physmem.num_reads::cpu4.inst               338                       # Number of read requests responded to by this memory
system.physmem.num_reads::cpu4.data               734                       # Number of read requests responded to by this memory
system.physmem.num_reads::cpu5.inst               582                       # Number of read requests responded to by this memory
system.physmem.num_reads::cpu5.data               689                       # Number of read requests responded to by this memory
system.physmem.num_reads::total                  7442                       # Number of read requests responded to by this memory
system.physmem.num_writes::writebacks            1799                       # Number of write requests responded to by this memory
system.physmem.num_writes::total                 1799                       # Number of write requests responded to by this memory
system.physmem.bw_read::cpu0.inst              694939                       # Total read bandwidth from this memory (bytes/s)
system.physmem.bw_read::cpu0.data              897533                       # Total read bandwidth from this memory (bytes/s)
system.physmem.bw_read::cpu1.inst               18470                       # Total read bandwidth from this memory (bytes/s)
system.physmem.bw_read::cpu1.data              430585                       # Total read bandwidth from this memory (bytes/s)
system.physmem.bw_read::cpu2.inst               12698                       # Total read bandwidth from this memory (bytes/s)
system.physmem.bw_read::cpu2.data              416155                       # Total read bandwidth from this memory (bytes/s)
system.physmem.bw_read::cpu3.inst               19047                       # Total read bandwidth from this memory (bytes/s)
system.physmem.bw_read::cpu3.data              453673                       # Total read bandwidth from this memory (bytes/s)
system.physmem.bw_read::cpu4.inst              195091                       # Total read bandwidth from this memory (bytes/s)
system.physmem.bw_read::cpu4.data              423659                       # Total read bandwidth from this memory (bytes/s)
system.physmem.bw_read::cpu5.inst              335926                       # Total read bandwidth from this memory (bytes/s)
system.physmem.bw_read::cpu5.data              397685                       # Total read bandwidth from this memory (bytes/s)
system.physmem.bw_read::total                 4295461                       # Total read bandwidth from this memory (bytes/s)
system.physmem.bw_inst_read::cpu0.inst         694939                       # Instruction read bandwidth from this memory (bytes/s)
system.physmem.bw_inst_read::cpu1.inst          18470                       # Instruction read bandwidth from this memory (bytes/s)
system.physmem.bw_inst_read::cpu2.inst          12698                       # Instruction read bandwidth from this memory (bytes/s)
system.physmem.bw_inst_read::cpu3.inst          19047                       # Instruction read bandwidth from this memory (bytes/s)
system.physmem.bw_inst_read::cpu4.inst         195091                       # Instruction read bandwidth from this memory (bytes/s)
system.physmem.bw_inst_read::cpu5.inst         335926                       # Instruction read bandwidth from this memory (bytes/s)
system.physmem.bw_inst_read::total            1276171                       # Instruction read bandwidth from this memory (bytes/s)
system.physmem.bw_write::writebacks           1038368                       # Write bandwidth from this memory (bytes/s)
system.physmem.bw_write::total                1038368                       # Write bandwidth from this memory (bytes/s)
system.physmem.bw_total::writebacks           1038368                       # Total bandwidth to/from this memory (bytes/s)
system.physmem.bw_total::cpu0.inst             694939                       # Total bandwidth to/from this memory (bytes/s)
system.physmem.bw_total::cpu0.data             897533                       # Total bandwidth to/from this memory (bytes/s)
system.physmem.bw_total::cpu1.inst              18470                       # Total bandwidth to/from this memory (bytes/s)
system.physmem.bw_total::cpu1.data             430585                       # Total bandwidth to/from this memory (bytes/s)
system.physmem.bw_total::cpu2.inst              12698                       # Total bandwidth to/from this memory (bytes/s)
system.physmem.bw_total::cpu2.data             416155                       # Total bandwidth to/from this memory (bytes/s)
system.physmem.bw_total::cpu3.inst              19047                       # Total bandwidth to/from this memory (bytes/s)
system.physmem.bw_total::cpu3.data             453673                       # Total bandwidth to/from this memory (bytes/s)
system.physmem.bw_total::cpu4.inst             195091                       # Total bandwidth to/from this memory (bytes/s)
system.physmem.bw_total::cpu4.data             423659                       # Total bandwidth to/from this memory (bytes/s)
system.physmem.bw_total::cpu5.inst             335926                       # Total bandwidth to/from this memory (bytes/s)
system.physmem.bw_total::cpu5.data             397685                       # Total bandwidth to/from this memory (bytes/s)
system.physmem.bw_total::total                5333829                       # Total bandwidth to/from this memory (bytes/s)
system.pwrStateResidencyTicks::UNDEFINED 110881698000                       # Cumulative time (in ticks) in various power states
system.cpu0.branchPred.lookups               23420713                       # Number of BP lookups
system.cpu0.branchPred.condPredicted         14193892                       # Number of conditional branches predicted
system.cpu0.branchPred.condIncorrect           550128                       # Number of conditional branches incorrect
system.cpu0.branchPred.BTBLookups            12793071                       # Number of BTB lookups
system.cpu0.branchPred.BTBHits               11054601                       # Number of BTB hits
system.cpu0.branchPred.BTBCorrect                   0                       # Number of correct BTB predictions (this stat may not work properly.
system.cpu0.branchPred.BTBHitPct            86.410847                       # BTB Hit Percentage
system.cpu0.branchPred.usedRAS                2977193                       # Number of times the RAS was used to get a target.
system.cpu0.branchPred.RASInCorrect             52809                       # Number of incorrect RAS predictions.
system.cpu0.branchPred.indirectLookups         716545                       # Number of indirect predictor lookups.
system.cpu0.branchPred.indirectHits            710739                       # Number of indirect target hits.
system.cpu0.branchPred.indirectMisses            5806                       # Number of indirect misses.
system.cpu0.branchPredindirectMispredicted        10257                       # Number of mispredicted indirect branches.
system.cpu0.dstage2_mmu.stage2_tlb.walker.pwrStateResidencyTicks::UNDEFINED 110881698000                       # Cumulative time (in ticks) in various power states
system.cpu0.dstage2_mmu.stage2_tlb.walker.walks            0                       # Table walker walks requested
system.cpu0.dstage2_mmu.stage2_tlb.walker.walkRequestOrigin_Requested::Data            0                       # Table walker requests started/completed, data/inst
system.cpu0.dstage2_mmu.stage2_tlb.walker.walkRequestOrigin_Requested::Inst            0                       # Table walker requests started/completed, data/inst
system.cpu0.dstage2_mmu.stage2_tlb.walker.walkRequestOrigin_Requested::total            0                       # Table walker requests started/completed, data/inst
system.cpu0.dstage2_mmu.stage2_tlb.walker.walkRequestOrigin_Completed::Data            0                       # Table walker requests started/completed, data/inst
system.cpu0.dstage2_mmu.stage2_tlb.walker.walkRequestOrigin_Completed::Inst            0                       # Table walker requests started/completed, data/inst
system.cpu0.dstage2_mmu.stage2_tlb.walker.walkRequestOrigin_Completed::total            0                       # Table walker requests started/completed, data/inst
system.cpu0.dstage2_mmu.stage2_tlb.walker.walkRequestOrigin::total            0                       # Table walker requests started/completed, data/inst
system.cpu0.dstage2_mmu.stage2_tlb.inst_hits            0                       # ITB inst hits
system.cpu0.dstage2_mmu.stage2_tlb.inst_misses            0                       # ITB inst misses
system.cpu0.dstage2_mmu.stage2_tlb.read_hits            0                       # DTB read hits
system.cpu0.dstage2_mmu.stage2_tlb.read_misses            0                       # DTB read misses
system.cpu0.dstage2_mmu.stage2_tlb.write_hits            0                       # DTB write hits
system.cpu0.dstage2_mmu.stage2_tlb.write_misses            0                       # DTB write misses
system.cpu0.dstage2_mmu.stage2_tlb.flush_tlb            0                       # Number of times complete TLB was flushed
system.cpu0.dstage2_mmu.stage2_tlb.flush_tlb_mva            0                       # Number of times TLB was flushed by MVA
system.cpu0.dstage2_mmu.stage2_tlb.flush_tlb_mva_asid            0                       # Number of times TLB was flushed by MVA & ASID
system.cpu0.dstage2_mmu.stage2_tlb.flush_tlb_asid            0                       # Number of times TLB was flushed by ASID
system.cpu0.dstage2_mmu.stage2_tlb.flush_entries            0                       # Number of entries that have been flushed from TLB
system.cpu0.dstage2_mmu.stage2_tlb.align_faults            0                       # Number of TLB faults due to alignment restrictions
system.cpu0.dstage2_mmu.stage2_tlb.prefetch_faults            0                       # Number of TLB faults due to prefetch
system.cpu0.dstage2_mmu.stage2_tlb.domain_faults            0                       # Number of TLB faults due to domain restrictions
system.cpu0.dstage2_mmu.stage2_tlb.perms_faults            0                       # Number of TLB faults due to permissions restrictions
system.cpu0.dstage2_mmu.stage2_tlb.read_accesses            0                       # DTB read accesses
system.cpu0.dstage2_mmu.stage2_tlb.write_accesses            0                       # DTB write accesses
system.cpu0.dstage2_mmu.stage2_tlb.inst_accesses            0                       # ITB inst accesses
system.cpu0.dstage2_mmu.stage2_tlb.hits             0                       # DTB hits
system.cpu0.dstage2_mmu.stage2_tlb.misses            0                       # DTB misses
system.cpu0.dstage2_mmu.stage2_tlb.accesses            0                       # DTB accesses
system.cpu0.dtb.walker.pwrStateResidencyTicks::UNDEFINED 110881698000                       # Cumulative time (in ticks) in various power states
system.cpu0.dtb.walker.walks                        0                       # Table walker walks requested
system.cpu0.dtb.walker.walkRequestOrigin_Requested::Data            0                       # Table walker requests started/completed, data/inst
system.cpu0.dtb.walker.walkRequestOrigin_Requested::Inst            0                       # Table walker requests started/completed, data/inst
system.cpu0.dtb.walker.walkRequestOrigin_Requested::total            0                       # Table walker requests started/completed, data/inst
system.cpu0.dtb.walker.walkRequestOrigin_Completed::Data            0                       # Table walker requests started/completed, data/inst
system.cpu0.dtb.walker.walkRequestOrigin_Completed::Inst            0                       # Table walker requests started/completed, data/inst
system.cpu0.dtb.walker.walkRequestOrigin_Completed::total            0                       # Table walker requests started/completed, data/inst
system.cpu0.dtb.walker.walkRequestOrigin::total            0                       # Table walker requests started/completed, data/inst
system.cpu0.dtb.inst_hits                           0                       # ITB inst hits
system.cpu0.dtb.inst_misses                         0                       # ITB inst misses
system.cpu0.dtb.read_hits                           0                       # DTB read hits
system.cpu0.dtb.read_misses                         0                       # DTB read misses
system.cpu0.dtb.write_hits                          0                       # DTB write hits
system.cpu0.dtb.write_misses                        0                       # DTB write misses
system.cpu0.dtb.flush_tlb                           0                       # Number of times complete TLB was flushed
system.cpu0.dtb.flush_tlb_mva                       0                       # Number of times TLB was flushed by MVA
system.cpu0.dtb.flush_tlb_mva_asid                  0                       # Number of times TLB was flushed by MVA & ASID
system.cpu0.dtb.flush_tlb_asid                      0                       # Number of times TLB was flushed by ASID
system.cpu0.dtb.flush_entries                       0                       # Number of entries that have been flushed from TLB
system.cpu0.dtb.align_faults                        0                       # Number of TLB faults due to alignment restrictions
system.cpu0.dtb.prefetch_faults                     0                       # Number of TLB faults due to prefetch
system.cpu0.dtb.domain_faults                       0                       # Number of TLB faults due to domain restrictions
system.cpu0.dtb.perms_faults                        0                       # Number of TLB faults due to permissions restrictions
system.cpu0.dtb.read_accesses                       0                       # DTB read accesses
system.cpu0.dtb.write_accesses                      0                       # DTB write accesses
system.cpu0.dtb.inst_accesses                       0                       # ITB inst accesses
system.cpu0.dtb.hits                                0                       # DTB hits
system.cpu0.dtb.misses                              0                       # DTB misses
system.cpu0.dtb.accesses                            0                       # DTB accesses
system.cpu0.istage2_mmu.stage2_tlb.walker.pwrStateResidencyTicks::UNDEFINED 110881698000                       # Cumulative time (in ticks) in various power states
system.cpu0.istage2_mmu.stage2_tlb.walker.walks            0                       # Table walker walks requested
system.cpu0.istage2_mmu.stage2_tlb.walker.walkRequestOrigin_Requested::Data            0                       # Table walker requests started/completed, data/inst
system.cpu0.istage2_mmu.stage2_tlb.walker.walkRequestOrigin_Requested::Inst            0                       # Table walker requests started/completed, data/inst
system.cpu0.istage2_mmu.stage2_tlb.walker.walkRequestOrigin_Requested::total            0                       # Table walker requests started/completed, data/inst
system.cpu0.istage2_mmu.stage2_tlb.walker.walkRequestOrigin_Completed::Data            0                       # Table walker requests started/completed, data/inst
system.cpu0.istage2_mmu.stage2_tlb.walker.walkRequestOrigin_Completed::Inst            0                       # Table walker requests started/completed, data/inst
system.cpu0.istage2_mmu.stage2_tlb.walker.walkRequestOrigin_Completed::total            0                       # Table walker requests started/completed, data/inst
system.cpu0.istage2_mmu.stage2_tlb.walker.walkRequestOrigin::total            0                       # Table walker requests started/completed, data/inst
system.cpu0.istage2_mmu.stage2_tlb.inst_hits            0                       # ITB inst hits
system.cpu0.istage2_mmu.stage2_tlb.inst_misses            0                       # ITB inst misses
system.cpu0.istage2_mmu.stage2_tlb.read_hits            0                       # DTB read hits
system.cpu0.istage2_mmu.stage2_tlb.read_misses            0                       # DTB read misses
system.cpu0.istage2_mmu.stage2_tlb.write_hits            0                       # DTB write hits
system.cpu0.istage2_mmu.stage2_tlb.write_misses            0                       # DTB write misses
system.cpu0.istage2_mmu.stage2_tlb.flush_tlb            0                       # Number of times complete TLB was flushed
system.cpu0.istage2_mmu.stage2_tlb.flush_tlb_mva            0                       # Number of times TLB was flushed by MVA
system.cpu0.istage2_mmu.stage2_tlb.flush_tlb_mva_asid            0                       # Number of times TLB was flushed by MVA & ASID
system.cpu0.istage2_mmu.stage2_tlb.flush_tlb_asid            0                       # Number of times TLB was flushed by ASID
system.cpu0.istage2_mmu.stage2_tlb.flush_entries            0                       # Number of entries that have been flushed from TLB
system.cpu0.istage2_mmu.stage2_tlb.align_faults            0                       # Number of TLB faults due to alignment restrictions
system.cpu0.istage2_mmu.stage2_tlb.prefetch_faults            0                       # Number of TLB faults due to prefetch
system.cpu0.istage2_mmu.stage2_tlb.domain_faults            0                       # Number of TLB faults due to domain restrictions
system.cpu0.istage2_mmu.stage2_tlb.perms_faults            0                       # Number of TLB faults due to permissions restrictions
system.cpu0.istage2_mmu.stage2_tlb.read_accesses            0                       # DTB read accesses
system.cpu0.istage2_mmu.stage2_tlb.write_accesses            0                       # DTB write accesses
system.cpu0.istage2_mmu.stage2_tlb.inst_accesses            0                       # ITB inst accesses
system.cpu0.istage2_mmu.stage2_tlb.hits             0                       # DTB hits
system.cpu0.istage2_mmu.stage2_tlb.misses            0                       # DTB misses
system.cpu0.istage2_mmu.stage2_tlb.accesses            0                       # DTB accesses
system.cpu0.itb.walker.pwrStateResidencyTicks::UNDEFINED 110881698000                       # Cumulative time (in ticks) in various power states
system.cpu0.itb.walker.walks                        0                       # Table walker walks requested
system.cpu0.itb.walker.walkRequestOrigin_Requested::Data            0                       # Table walker requests started/completed, data/inst
system.cpu0.itb.walker.walkRequestOrigin_Requested::Inst            0                       # Table walker requests started/completed, data/inst
system.cpu0.itb.walker.walkRequestOrigin_Requested::total            0                       # Table walker requests started/completed, data/inst
system.cpu0.itb.walker.walkRequestOrigin_Completed::Data            0                       # Table walker requests started/completed, data/inst
system.cpu0.itb.walker.walkRequestOrigin_Completed::Inst            0                       # Table walker requests started/completed, data/inst
system.cpu0.itb.walker.walkRequestOrigin_Completed::total            0                       # Table walker requests started/completed, data/inst
system.cpu0.itb.walker.walkRequestOrigin::total            0                       # Table walker requests started/completed, data/inst
system.cpu0.itb.inst_hits                           0                       # ITB inst hits
system.cpu0.itb.inst_misses                         0                       # ITB inst misses
system.cpu0.itb.read_hits                           0                       # DTB read hits
system.cpu0.itb.read_misses                         0                       # DTB read misses
system.cpu0.itb.write_hits                          0                       # DTB write hits
system.cpu0.itb.write_misses                        0                       # DTB write misses
system.cpu0.itb.flush_tlb                           0                       # Number of times complete TLB was flushed
system.cpu0.itb.flush_tlb_mva                       0                       # Number of times TLB was flushed by MVA
system.cpu0.itb.flush_tlb_mva_asid                  0                       # Number of times TLB was flushed by MVA & ASID
system.cpu0.itb.flush_tlb_asid                      0                       # Number of times TLB was flushed by ASID
system.cpu0.itb.flush_entries                       0                       # Number of entries that have been flushed from TLB
system.cpu0.itb.align_faults                        0                       # Number of TLB faults due to alignment restrictions
system.cpu0.itb.prefetch_faults                     0                       # Number of TLB faults due to prefetch
system.cpu0.itb.domain_faults                       0                       # Number of TLB faults due to domain restrictions
system.cpu0.itb.perms_faults                        0                       # Number of TLB faults due to permissions restrictions
system.cpu0.itb.read_accesses                       0                       # DTB read accesses
system.cpu0.itb.write_accesses                      0                       # DTB write accesses
system.cpu0.itb.inst_accesses                       0                       # ITB inst accesses
system.cpu0.itb.hits                                0                       # DTB hits
system.cpu0.itb.misses                              0                       # DTB misses
system.cpu0.itb.accesses                            0                       # DTB accesses
system.cpu0.workload.num_syscalls              187317                       # Number of system calls
system.cpu0.pwrStateResidencyTicks::ON   110881698000                       # Cumulative time (in ticks) in various power states
system.cpu0.numCycles                       110881699                       # number of cpu cycles simulated
system.cpu0.numWorkItemsStarted                     0                       # number of work items this cpu started
system.cpu0.numWorkItemsCompleted                   0                       # number of work items this cpu completed
system.cpu0.fetch.icacheStallCycles          22876818                       # Number of cycles fetch is stalled on an Icache miss
system.cpu0.fetch.Insts                     132008692                       # Number of instructions fetch has processed
system.cpu0.fetch.Branches                   23420713                       # Number of branches that fetch encountered
system.cpu0.fetch.predictedBranches          14742533                       # Number of branches that fetch has predicted taken
system.cpu0.fetch.Cycles                     87406360                       # Number of cycles fetch has run and was not squashing or blocked
system.cpu0.fetch.SquashCycles                1110079                       # Number of cycles fetch has spent squashing
system.cpu0.fetch.MiscStallCycles                   1                       # Number of cycles fetch has spent waiting on interrupts, or bad addresses, or out of MSHRs
system.cpu0.fetch.PendingTrapStallCycles          177                       # Number of stall cycles due to pending traps
system.cpu0.fetch.CacheLines                 18266167                       # Number of cache lines fetched
system.cpu0.fetch.IcacheSquashes                99510                       # Number of outstanding Icache misses that were squashed
system.cpu0.fetch.rateDist::samples         110838395                       # Number of instructions fetched each cycle (Total)
system.cpu0.fetch.rateDist::mean             1.346217                       # Number of instructions fetched each cycle (Total)
system.cpu0.fetch.rateDist::stdev            0.875151                       # Number of instructions fetched each cycle (Total)
system.cpu0.fetch.rateDist::underflows              0      0.00%      0.00% # Number of instructions fetched each cycle (Total)
system.cpu0.fetch.rateDist::0                29900745     26.98%     26.98% # Number of instructions fetched each cycle (Total)
system.cpu0.fetch.rateDist::1                12662719     11.42%     38.40% # Number of instructions fetched each cycle (Total)
system.cpu0.fetch.rateDist::2                68274931     61.60%    100.00% # Number of instructions fetched each cycle (Total)
system.cpu0.fetch.rateDist::overflows               0      0.00%    100.00% # Number of instructions fetched each cycle (Total)
system.cpu0.fetch.rateDist::min_value               0                       # Number of instructions fetched each cycle (Total)
system.cpu0.fetch.rateDist::max_value               2                       # Number of instructions fetched each cycle (Total)
system.cpu0.fetch.rateDist::total           110838395                       # Number of instructions fetched each cycle (Total)
system.cpu0.fetch.branchRate                 0.211223                       # Number of branch fetches per cycle
system.cpu0.fetch.rate                       1.190536                       # Number of inst fetches per cycle
system.cpu0.decode.IdleCycles                19903912                       # Number of cycles decode is idle
system.cpu0.decode.BlockedCycles             15182439                       # Number of cycles decode is blocked
system.cpu0.decode.RunCycles                 59456501                       # Number of cycles decode is running
system.cpu0.decode.UnblockCycles             15782175                       # Number of cycles decode is unblocking
system.cpu0.decode.SquashCycles                513368                       # Number of cycles decode is squashing
system.cpu0.decode.BranchResolved             6375518                       # Number of times decode resolved a branch
system.cpu0.decode.BranchMispred                41971                       # Number of times decode detected a branch misprediction
system.cpu0.decode.DecodedInsts             146092814                       # Number of instructions handled by decode
system.cpu0.decode.SquashedInsts                72362                       # Number of squashed instructions handled by decode
system.cpu0.rename.SquashCycles                513368                       # Number of cycles rename is squashing
system.cpu0.rename.IdleCycles                23313751                       # Number of cycles rename is idle
system.cpu0.rename.BlockCycles                1716418                       # Number of cycles rename is blocking
system.cpu0.rename.serializeStallCycles        676176                       # count of cycles rename stalled for serializing inst
system.cpu0.rename.RunCycles                 71789895                       # Number of cycles rename is running
system.cpu0.rename.UnblockCycles             12828787                       # Number of cycles rename is unblocking
system.cpu0.rename.RenamedInsts             145310261                       # Number of instructions processed by rename
system.cpu0.rename.IQFullEvents               9776782                       # Number of times rename has blocked due to IQ full
system.cpu0.rename.LQFullEvents                 65684                       # Number of times rename has blocked due to LQ full
system.cpu0.rename.SQFullEvents                  3043                       # Number of times rename has blocked due to SQ full
system.cpu0.rename.RenamedOperands          183400183                       # Number of destination operands rename has renamed
system.cpu0.rename.RenameLookups            672440256                       # Number of register rename lookups that rename has made
system.cpu0.rename.int_rename_lookups       186336371                       # Number of integer rename lookups
system.cpu0.rename.fp_rename_lookups               16                       # Number of floating rename lookups
system.cpu0.rename.CommittedMaps            158673757                       # Number of HB maps that are committed
system.cpu0.rename.UndoneMaps                24726426                       # Number of HB maps that are undone due to squashing
system.cpu0.rename.serializingInsts             24249                       # count of serializing insts renamed
system.cpu0.rename.tempSerializingInsts         11014                       # count of temporary serializing insts renamed
system.cpu0.rename.skidInsts                 13783453                       # count of insts added to the skid buffer
system.cpu0.memDep0.insertedLoads            18543337                       # Number of loads inserted to the mem dependence unit.
system.cpu0.memDep0.insertedStores           11623941                       # Number of stores inserted to the mem dependence unit.
system.cpu0.memDep0.conflictingLoads          5795744                       # Number of conflicting loads.
system.cpu0.memDep0.conflictingStores         2205330                       # Number of conflicting stores.
system.cpu0.iq.iqInstsAdded                 143770180                       # Number of instructions added to the IQ (excludes non-spec)
system.cpu0.iq.iqNonSpecInstsAdded              22739                       # Number of non-speculative instructions added to the IQ
system.cpu0.iq.iqInstsIssued                130284768                       # Number of instructions issued
system.cpu0.iq.iqSquashedInstsIssued          1864017                       # Number of squashed instructions issued
system.cpu0.iq.iqSquashedInstsExamined       15819434                       # Number of squashed instructions iterated over during squash; mainly for profiling
system.cpu0.iq.iqSquashedOperandsExamined     64118471                       # Number of squashed operands that are examined and possibly removed from graph
system.cpu0.iq.iqSquashedNonSpecRemoved           619                       # Number of squashed non-spec instructions that were removed
system.cpu0.iq.issued_per_cycle::samples    110838395                       # Number of insts issued each cycle
system.cpu0.iq.issued_per_cycle::mean        1.175448                       # Number of insts issued each cycle
system.cpu0.iq.issued_per_cycle::stdev       0.541665                       # Number of insts issued each cycle
system.cpu0.iq.issued_per_cycle::underflows            0      0.00%      0.00% # Number of insts issued each cycle
system.cpu0.iq.issued_per_cycle::0            8242778      7.44%      7.44% # Number of insts issued each cycle
system.cpu0.iq.issued_per_cycle::1           74906466     67.58%     75.02% # Number of insts issued each cycle
system.cpu0.iq.issued_per_cycle::2           27689151     24.98%    100.00% # Number of insts issued each cycle
system.cpu0.iq.issued_per_cycle::overflows            0      0.00%    100.00% # Number of insts issued each cycle
system.cpu0.iq.issued_per_cycle::min_value            0                       # Number of insts issued each cycle
system.cpu0.iq.issued_per_cycle::max_value            2                       # Number of insts issued each cycle
system.cpu0.iq.issued_per_cycle::total      110838395                       # Number of insts issued each cycle
system.cpu0.iq.fu_full::No_OpClass                  0      0.00%      0.00% # attempts to use FU when none available
system.cpu0.iq.fu_full::IntAlu               78674739     94.35%     94.35% # attempts to use FU when none available
system.cpu0.iq.fu_full::IntMult                     0      0.00%     94.35% # attempts to use FU when none available
system.cpu0.iq.fu_full::IntDiv                      0      0.00%     94.35% # attempts to use FU when none available
system.cpu0.iq.fu_full::FloatAdd                    0      0.00%     94.35% # attempts to use FU when none available
system.cpu0.iq.fu_full::FloatCmp                    0      0.00%     94.35% # attempts to use FU when none available
system.cpu0.iq.fu_full::FloatCvt                    0      0.00%     94.35% # attempts to use FU when none available
system.cpu0.iq.fu_full::FloatMult                   0      0.00%     94.35% # attempts to use FU when none available
system.cpu0.iq.fu_full::FloatMultAcc                0      0.00%     94.35% # attempts to use FU when none available
system.cpu0.iq.fu_full::FloatDiv                    0      0.00%     94.35% # attempts to use FU when none available
system.cpu0.iq.fu_full::FloatMisc                   0      0.00%     94.35% # attempts to use FU when none available
system.cpu0.iq.fu_full::FloatSqrt                   0      0.00%     94.35% # attempts to use FU when none available
system.cpu0.iq.fu_full::SimdAdd                     0      0.00%     94.35% # attempts to use FU when none available
system.cpu0.iq.fu_full::SimdAddAcc                  0      0.00%     94.35% # attempts to use FU when none available
system.cpu0.iq.fu_full::SimdAlu                     0      0.00%     94.35% # attempts to use FU when none available
system.cpu0.iq.fu_full::SimdCmp                     0      0.00%     94.35% # attempts to use FU when none available
system.cpu0.iq.fu_full::SimdCvt                     0      0.00%     94.35% # attempts to use FU when none available
system.cpu0.iq.fu_full::SimdMisc                    0      0.00%     94.35% # attempts to use FU when none available
system.cpu0.iq.fu_full::SimdMult                    0      0.00%     94.35% # attempts to use FU when none available
system.cpu0.iq.fu_full::SimdMultAcc                 0      0.00%     94.35% # attempts to use FU when none available
system.cpu0.iq.fu_full::SimdShift                   0      0.00%     94.35% # attempts to use FU when none available
system.cpu0.iq.fu_full::SimdShiftAcc                0      0.00%     94.35% # attempts to use FU when none available
system.cpu0.iq.fu_full::SimdSqrt                    0      0.00%     94.35% # attempts to use FU when none available
system.cpu0.iq.fu_full::SimdFloatAdd                0      0.00%     94.35% # attempts to use FU when none available
system.cpu0.iq.fu_full::SimdFloatAlu                0      0.00%     94.35% # attempts to use FU when none available
system.cpu0.iq.fu_full::SimdFloatCmp                0      0.00%     94.35% # attempts to use FU when none available
system.cpu0.iq.fu_full::SimdFloatCvt                0      0.00%     94.35% # attempts to use FU when none available
system.cpu0.iq.fu_full::SimdFloatDiv                0      0.00%     94.35% # attempts to use FU when none available
system.cpu0.iq.fu_full::SimdFloatMisc               0      0.00%     94.35% # attempts to use FU when none available
system.cpu0.iq.fu_full::SimdFloatMult               0      0.00%     94.35% # attempts to use FU when none available
system.cpu0.iq.fu_full::SimdFloatMultAcc            0      0.00%     94.35% # attempts to use FU when none available
system.cpu0.iq.fu_full::SimdFloatSqrt               0      0.00%     94.35% # attempts to use FU when none available
system.cpu0.iq.fu_full::MemRead               3111090      3.73%     98.09% # attempts to use FU when none available
system.cpu0.iq.fu_full::MemWrite              1595820      1.91%    100.00% # attempts to use FU when none available
system.cpu0.iq.fu_full::FloatMemRead                0      0.00%    100.00% # attempts to use FU when none available
system.cpu0.iq.fu_full::FloatMemWrite               0      0.00%    100.00% # attempts to use FU when none available
system.cpu0.iq.fu_full::IprAccess                   0      0.00%    100.00% # attempts to use FU when none available
system.cpu0.iq.fu_full::InstPrefetch                0      0.00%    100.00% # attempts to use FU when none available
system.cpu0.iq.FU_type_0::No_OpClass                0      0.00%      0.00% # Type of FU issued
system.cpu0.iq.FU_type_0::IntAlu            100681516     77.28%     77.28% # Type of FU issued
system.cpu0.iq.FU_type_0::IntMult              684986      0.53%     77.80% # Type of FU issued
system.cpu0.iq.FU_type_0::IntDiv                    0      0.00%     77.80% # Type of FU issued
system.cpu0.iq.FU_type_0::FloatAdd                  0      0.00%     77.80% # Type of FU issued
system.cpu0.iq.FU_type_0::FloatCmp                  0      0.00%     77.80% # Type of FU issued
system.cpu0.iq.FU_type_0::FloatCvt                  0      0.00%     77.80% # Type of FU issued
system.cpu0.iq.FU_type_0::FloatMult                 0      0.00%     77.80% # Type of FU issued
system.cpu0.iq.FU_type_0::FloatMultAcc              0      0.00%     77.80% # Type of FU issued
system.cpu0.iq.FU_type_0::FloatDiv                  0      0.00%     77.80% # Type of FU issued
system.cpu0.iq.FU_type_0::FloatMisc                 0      0.00%     77.80% # Type of FU issued
system.cpu0.iq.FU_type_0::FloatSqrt                 0      0.00%     77.80% # Type of FU issued
system.cpu0.iq.FU_type_0::SimdAdd                   0      0.00%     77.80% # Type of FU issued
system.cpu0.iq.FU_type_0::SimdAddAcc                0      0.00%     77.80% # Type of FU issued
system.cpu0.iq.FU_type_0::SimdAlu                   0      0.00%     77.80% # Type of FU issued
system.cpu0.iq.FU_type_0::SimdCmp                   0      0.00%     77.80% # Type of FU issued
system.cpu0.iq.FU_type_0::SimdCvt                   0      0.00%     77.80% # Type of FU issued
system.cpu0.iq.FU_type_0::SimdMisc                  0      0.00%     77.80% # Type of FU issued
system.cpu0.iq.FU_type_0::SimdMult                  0      0.00%     77.80% # Type of FU issued
system.cpu0.iq.FU_type_0::SimdMultAcc               0      0.00%     77.80% # Type of FU issued
system.cpu0.iq.FU_type_0::SimdShift                 0      0.00%     77.80% # Type of FU issued
system.cpu0.iq.FU_type_0::SimdShiftAcc              0      0.00%     77.80% # Type of FU issued
system.cpu0.iq.FU_type_0::SimdSqrt                  0      0.00%     77.80% # Type of FU issued
system.cpu0.iq.FU_type_0::SimdFloatAdd              0      0.00%     77.80% # Type of FU issued
system.cpu0.iq.FU_type_0::SimdFloatAlu              0      0.00%     77.80% # Type of FU issued
system.cpu0.iq.FU_type_0::SimdFloatCmp              0      0.00%     77.80% # Type of FU issued
system.cpu0.iq.FU_type_0::SimdFloatCvt              0      0.00%     77.80% # Type of FU issued
system.cpu0.iq.FU_type_0::SimdFloatDiv              0      0.00%     77.80% # Type of FU issued
system.cpu0.iq.FU_type_0::SimdFloatMisc         13110      0.01%     77.81% # Type of FU issued
system.cpu0.iq.FU_type_0::SimdFloatMult             0      0.00%     77.81% # Type of FU issued
system.cpu0.iq.FU_type_0::SimdFloatMultAcc            0      0.00%     77.81% # Type of FU issued
system.cpu0.iq.FU_type_0::SimdFloatSqrt             0      0.00%     77.81% # Type of FU issued
system.cpu0.iq.FU_type_0::MemRead            17932453     13.76%     91.58% # Type of FU issued
system.cpu0.iq.FU_type_0::MemWrite           10972687      8.42%    100.00% # Type of FU issued
system.cpu0.iq.FU_type_0::FloatMemRead              0      0.00%    100.00% # Type of FU issued
system.cpu0.iq.FU_type_0::FloatMemWrite            16      0.00%    100.00% # Type of FU issued
system.cpu0.iq.FU_type_0::IprAccess                 0      0.00%    100.00% # Type of FU issued
system.cpu0.iq.FU_type_0::InstPrefetch              0      0.00%    100.00% # Type of FU issued
system.cpu0.iq.FU_type_0::total             130284768                       # Type of FU issued
system.cpu0.iq.rate                          1.174989                       # Inst issue rate
system.cpu0.iq.fu_busy_cnt                   83381649                       # FU busy when requested
system.cpu0.iq.fu_busy_rate                  0.639995                       # FU busy rate (busy events/executed inst)
system.cpu0.iq.int_inst_queue_reads         456653565                       # Number of integer instruction queue reads
system.cpu0.iq.int_inst_queue_writes        159614475                       # Number of integer instruction queue writes
system.cpu0.iq.int_inst_queue_wakeup_accesses    129824188                       # Number of integer instruction queue wakeup accesses
system.cpu0.iq.fp_inst_queue_reads                 32                       # Number of floating instruction queue reads
system.cpu0.iq.fp_inst_queue_writes                16                       # Number of floating instruction queue writes
system.cpu0.iq.fp_inst_queue_wakeup_accesses           16                       # Number of floating instruction queue wakeup accesses
system.cpu0.iq.int_alu_accesses             213666401                       # Number of integer alu accesses
system.cpu0.iq.fp_alu_accesses                     16                       # Number of floating point alu accesses
system.cpu0.iew.lsq.thread0.forwLoads         2469519                       # Number of loads that had data forwarded from stores
system.cpu0.iew.lsq.thread0.invAddrLoads            0                       # Number of loads ignored due to an invalid address
system.cpu0.iew.lsq.thread0.squashedLoads      1401824                       # Number of loads squashed
system.cpu0.iew.lsq.thread0.ignoredResponses          478                       # Number of memory responses ignored because the instruction is squashed
system.cpu0.iew.lsq.thread0.memOrderViolation         2165                       # Number of memory ordering violations
system.cpu0.iew.lsq.thread0.squashedStores       845337                       # Number of stores squashed
system.cpu0.iew.lsq.thread0.invAddrSwpfs            0                       # Number of software prefetches ignored due to an invalid address
system.cpu0.iew.lsq.thread0.blockedLoads            0                       # Number of blocked loads due to partial load-store forwarding
system.cpu0.iew.lsq.thread0.rescheduledLoads       187168                       # Number of loads that were rescheduled
system.cpu0.iew.lsq.thread0.cacheBlocked          736                       # Number of times an access to memory failed due to the cache being blocked
system.cpu0.iew.iewIdleCycles                       0                       # Number of cycles IEW is idle
system.cpu0.iew.iewSquashCycles                513368                       # Number of cycles IEW is squashing
system.cpu0.iew.iewBlockCycles                1684077                       # Number of cycles IEW is blocking
system.cpu0.iew.iewUnblockCycles                24624                       # Number of cycles IEW is unblocking
system.cpu0.iew.iewDispatchedInsts          143792953                       # Number of instructions dispatched to IQ
system.cpu0.iew.iewDispSquashedInsts           102228                       # Number of squashed instructions skipped by dispatch
system.cpu0.iew.iewDispLoadInsts             18543337                       # Number of dispatched load instructions
system.cpu0.iew.iewDispStoreInsts            11623941                       # Number of dispatched store instructions
system.cpu0.iew.iewDispNonSpecInsts             10934                       # Number of dispatched non-speculative instructions
system.cpu0.iew.iewIQFullEvents                    45                       # Number of times the IQ has become full, causing a stall
system.cpu0.iew.iewLSQFullEvents                  511                       # Number of times the LSQ has become full, causing a stall
system.cpu0.iew.memOrderViolationEvents          2165                       # Number of memory order violations
system.cpu0.iew.predictedTakenIncorrect        273894                       # Number of branches that were predicted taken incorrectly
system.cpu0.iew.predictedNotTakenIncorrect       265010                       # Number of branches that were predicted not taken incorrectly
system.cpu0.iew.branchMispredicts              538904                       # Number of branch mispredicts detected at execute
system.cpu0.iew.iewExecutedInsts            130115171                       # Number of executed instructions
system.cpu0.iew.iewExecLoadInsts             17875161                       # Number of load instructions executed
system.cpu0.iew.iewExecSquashedInsts           169597                       # Number of squashed instructions skipped in execute
system.cpu0.iew.exec_swp                            0                       # number of swp insts executed
system.cpu0.iew.exec_nop                           34                       # number of nop insts executed
system.cpu0.iew.exec_refs                    28816841                       # number of memory reference insts executed
system.cpu0.iew.exec_branches                20221704                       # Number of branches executed
system.cpu0.iew.exec_stores                  10941680                       # Number of stores executed
system.cpu0.iew.exec_rate                    1.173459                       # Inst execution rate
system.cpu0.iew.wb_sent                     129854683                       # cumulative count of insts sent to commit
system.cpu0.iew.wb_count                    129824204                       # cumulative count of insts written-back
system.cpu0.iew.wb_producers                 94484236                       # num instructions producing a value
system.cpu0.iew.wb_consumers                219978102                       # num instructions consuming a value
system.cpu0.iew.wb_rate                      1.170835                       # insts written-back per cycle
system.cpu0.iew.wb_fanout                    0.429517                       # average fanout of values written-back
system.cpu0.commit.commitSquashedInsts       15819600                       # The number of squashed insts skipped by commit
system.cpu0.commit.commitNonSpecStalls          22120                       # The number of times commit has been forced to stall to communicate backwards
system.cpu0.commit.branchMispredicts           508457                       # The number of times a branch was mispredicted
system.cpu0.commit.committed_per_cycle::samples    108644083                       # Number of insts commited each cycle
system.cpu0.commit.committed_per_cycle::mean     1.177915                       # Number of insts commited each cycle
system.cpu0.commit.committed_per_cycle::stdev     1.033874                       # Number of insts commited each cycle
system.cpu0.commit.committed_per_cycle::underflows            0      0.00%      0.00% # Number of insts commited each cycle
system.cpu0.commit.committed_per_cycle::0     13600232     12.52%     12.52% # Number of insts commited each cycle
system.cpu0.commit.committed_per_cycle::1     78240871     72.02%     84.53% # Number of insts commited each cycle
system.cpu0.commit.committed_per_cycle::2     10122843      9.32%     93.85% # Number of insts commited each cycle
system.cpu0.commit.committed_per_cycle::3      3054820      2.81%     96.66% # Number of insts commited each cycle
system.cpu0.commit.committed_per_cycle::4      1291745      1.19%     97.85% # Number of insts commited each cycle
system.cpu0.commit.committed_per_cycle::5       325401      0.30%     98.15% # Number of insts commited each cycle
system.cpu0.commit.committed_per_cycle::6       686441      0.63%     98.78% # Number of insts commited each cycle
system.cpu0.commit.committed_per_cycle::7      1164003      1.07%     99.85% # Number of insts commited each cycle
system.cpu0.commit.committed_per_cycle::8       157727      0.15%    100.00% # Number of insts commited each cycle
system.cpu0.commit.committed_per_cycle::overflows            0      0.00%    100.00% # Number of insts commited each cycle
system.cpu0.commit.committed_per_cycle::min_value            0                       # Number of insts commited each cycle
system.cpu0.commit.committed_per_cycle::max_value            8                       # Number of insts commited each cycle
system.cpu0.commit.committed_per_cycle::total    108644083                       # Number of insts commited each cycle
system.cpu0.commit.committedInsts           113283614                       # Number of instructions committed
system.cpu0.commit.committedOps             127973485                       # Number of ops (including micro ops) committed
system.cpu0.commit.swp_count                        0                       # Number of s/w prefetches committed
system.cpu0.commit.refs                      27920117                       # Number of memory references committed
system.cpu0.commit.loads                     17141513                       # Number of loads committed
system.cpu0.commit.membars                      11743                       # Number of memory barriers committed
system.cpu0.commit.branches                  20033406                       # Number of branches committed
system.cpu0.commit.fp_insts                        16                       # Number of committed floating point instructions.
system.cpu0.commit.int_insts                115923165                       # Number of committed integer instructions.
system.cpu0.commit.function_calls             3334858                       # Number of function calls committed.
system.cpu0.commit.op_class_0::No_OpClass            0      0.00%      0.00% # Class of committed instruction
system.cpu0.commit.op_class_0::IntAlu        99379815     77.66%     77.66% # Class of committed instruction
system.cpu0.commit.op_class_0::IntMult         660443      0.52%     78.17% # Class of committed instruction
system.cpu0.commit.op_class_0::IntDiv               0      0.00%     78.17% # Class of committed instruction
system.cpu0.commit.op_class_0::FloatAdd             0      0.00%     78.17% # Class of committed instruction
system.cpu0.commit.op_class_0::FloatCmp             0      0.00%     78.17% # Class of committed instruction
system.cpu0.commit.op_class_0::FloatCvt             0      0.00%     78.17% # Class of committed instruction
system.cpu0.commit.op_class_0::FloatMult            0      0.00%     78.17% # Class of committed instruction
system.cpu0.commit.op_class_0::FloatMultAcc            0      0.00%     78.17% # Class of committed instruction
system.cpu0.commit.op_class_0::FloatDiv             0      0.00%     78.17% # Class of committed instruction
system.cpu0.commit.op_class_0::FloatMisc            0      0.00%     78.17% # Class of committed instruction
system.cpu0.commit.op_class_0::FloatSqrt            0      0.00%     78.17% # Class of committed instruction
system.cpu0.commit.op_class_0::SimdAdd              0      0.00%     78.17% # Class of committed instruction
system.cpu0.commit.op_class_0::SimdAddAcc            0      0.00%     78.17% # Class of committed instruction
system.cpu0.commit.op_class_0::SimdAlu              0      0.00%     78.17% # Class of committed instruction
system.cpu0.commit.op_class_0::SimdCmp              0      0.00%     78.17% # Class of committed instruction
system.cpu0.commit.op_class_0::SimdCvt              0      0.00%     78.17% # Class of committed instruction
system.cpu0.commit.op_class_0::SimdMisc             0      0.00%     78.17% # Class of committed instruction
system.cpu0.commit.op_class_0::SimdMult             0      0.00%     78.17% # Class of committed instruction
system.cpu0.commit.op_class_0::SimdMultAcc            0      0.00%     78.17% # Class of committed instruction
system.cpu0.commit.op_class_0::SimdShift            0      0.00%     78.17% # Class of committed instruction
system.cpu0.commit.op_class_0::SimdShiftAcc            0      0.00%     78.17% # Class of committed instruction
system.cpu0.commit.op_class_0::SimdSqrt             0      0.00%     78.17% # Class of committed instruction
system.cpu0.commit.op_class_0::SimdFloatAdd            0      0.00%     78.17% # Class of committed instruction
system.cpu0.commit.op_class_0::SimdFloatAlu            0      0.00%     78.17% # Class of committed instruction
system.cpu0.commit.op_class_0::SimdFloatCmp            0      0.00%     78.17% # Class of committed instruction
system.cpu0.commit.op_class_0::SimdFloatCvt            0      0.00%     78.17% # Class of committed instruction
system.cpu0.commit.op_class_0::SimdFloatDiv            0      0.00%     78.17% # Class of committed instruction
system.cpu0.commit.op_class_0::SimdFloatMisc        13110      0.01%     78.18% # Class of committed instruction
system.cpu0.commit.op_class_0::SimdFloatMult            0      0.00%     78.18% # Class of committed instruction
system.cpu0.commit.op_class_0::SimdFloatMultAcc            0      0.00%     78.18% # Class of committed instruction
system.cpu0.commit.op_class_0::SimdFloatSqrt            0      0.00%     78.18% # Class of committed instruction
system.cpu0.commit.op_class_0::MemRead       17141513     13.39%     91.58% # Class of committed instruction
system.cpu0.commit.op_class_0::MemWrite      10778588      8.42%    100.00% # Class of committed instruction
system.cpu0.commit.op_class_0::FloatMemRead            0      0.00%    100.00% # Class of committed instruction
system.cpu0.commit.op_class_0::FloatMemWrite           16      0.00%    100.00% # Class of committed instruction
system.cpu0.commit.op_class_0::IprAccess            0      0.00%    100.00% # Class of committed instruction
system.cpu0.commit.op_class_0::InstPrefetch            0      0.00%    100.00% # Class of committed instruction
system.cpu0.commit.op_class_0::total        127973485                       # Class of committed instruction
system.cpu0.commit.bw_lim_events               157727                       # number cycles where commit BW limit reached
system.cpu0.rob.rob_reads                   252241174                       # The number of ROB reads
system.cpu0.rob.rob_writes                  289780964                       # The number of ROB writes
system.cpu0.timesIdled                           4109                       # Number of times that the entire CPU went into an idle state and unscheduled itself
system.cpu0.idleCycles                          43304                       # Total number of cycles that the CPU has spent unscheduled due to idling
system.cpu0.committedInsts                  113283614                       # Number of Instructions Simulated
system.cpu0.committedOps                    127973485                       # Number of Ops (including micro ops) Simulated
system.cpu0.cpi                              0.978797                       # CPI: Cycles Per Instruction
system.cpu0.cpi_total                        0.978797                       # CPI: Total CPI of All Threads
system.cpu0.ipc                              1.021662                       # IPC: Instructions Per Cycle
system.cpu0.ipc_total                        1.021662                       # IPC: Total IPC of All Threads
system.cpu0.int_regfile_reads               153211109                       # number of integer regfile reads
system.cpu0.int_regfile_writes               90798480                       # number of integer regfile writes
system.cpu0.fp_regfile_reads                      816                       # number of floating regfile reads
system.cpu0.cc_regfile_reads                447512359                       # number of cc regfile reads
system.cpu0.cc_regfile_writes                67976168                       # number of cc regfile writes
system.cpu0.misc_regfile_reads               28540709                       # number of misc regfile reads
system.cpu0.misc_regfile_writes                 15443                       # number of misc regfile writes
system.cpu0.dcache.tags.pwrStateResidencyTicks::UNDEFINED 110881698000                       # Cumulative time (in ticks) in various power states
system.cpu0.dcache.tags.replacements             9522                       # number of replacements
system.cpu0.dcache.tags.tagsinuse          242.491526                       # Cycle average of tags in use
system.cpu0.dcache.tags.total_refs           25266557                       # Total number of references to valid blocks.
system.cpu0.dcache.tags.sampled_refs             9778                       # Sample count of references to valid blocks.
system.cpu0.dcache.tags.avg_refs          2584.020965                       # Average number of references to valid blocks.
system.cpu0.dcache.tags.warmup_cycle      11921324500                       # Cycle when the warmup percentage was hit.
system.cpu0.dcache.tags.occ_blocks::cpu0.data   242.491526                       # Average occupied blocks per requestor
system.cpu0.dcache.tags.occ_percent::cpu0.data     0.947233                       # Average percentage of cache occupancy
system.cpu0.dcache.tags.occ_percent::total     0.947233                       # Average percentage of cache occupancy
system.cpu0.dcache.tags.occ_task_id_blocks::1024          256                       # Occupied blocks per task id
system.cpu0.dcache.tags.age_task_id_blocks_1024::0           26                       # Occupied blocks per task id
system.cpu0.dcache.tags.age_task_id_blocks_1024::1           71                       # Occupied blocks per task id
system.cpu0.dcache.tags.age_task_id_blocks_1024::2           58                       # Occupied blocks per task id
system.cpu0.dcache.tags.age_task_id_blocks_1024::3           56                       # Occupied blocks per task id
system.cpu0.dcache.tags.age_task_id_blocks_1024::4           45                       # Occupied blocks per task id
system.cpu0.dcache.tags.occ_task_id_percent::1024            1                       # Percentage of cache occupancy per task id
system.cpu0.dcache.tags.tag_accesses        101145705                       # Number of tag accesses
system.cpu0.dcache.tags.data_accesses       101145705                       # Number of data accesses
system.cpu0.dcache.pwrStateResidencyTicks::UNDEFINED 110881698000                       # Cumulative time (in ticks) in various power states
system.cpu0.dcache.ReadReq_hits::cpu0.data     14640573                       # number of ReadReq hits
system.cpu0.dcache.ReadReq_hits::total       14640573                       # number of ReadReq hits
system.cpu0.dcache.WriteReq_hits::cpu0.data     10611094                       # number of WriteReq hits
system.cpu0.dcache.WriteReq_hits::total      10611094                       # number of WriteReq hits
system.cpu0.dcache.LoadLockedReq_hits::cpu0.data         7292                       # number of LoadLockedReq hits
system.cpu0.dcache.LoadLockedReq_hits::total         7292                       # number of LoadLockedReq hits
system.cpu0.dcache.StoreCondReq_hits::cpu0.data         6356                       # number of StoreCondReq hits
system.cpu0.dcache.StoreCondReq_hits::total         6356                       # number of StoreCondReq hits
system.cpu0.dcache.demand_hits::cpu0.data     25251667                       # number of demand (read+write) hits
system.cpu0.dcache.demand_hits::total        25251667                       # number of demand (read+write) hits
system.cpu0.dcache.overall_hits::cpu0.data     25251667                       # number of overall hits
system.cpu0.dcache.overall_hits::total       25251667                       # number of overall hits
system.cpu0.dcache.ReadReq_misses::cpu0.data         6668                       # number of ReadReq misses
system.cpu0.dcache.ReadReq_misses::total         6668                       # number of ReadReq misses
system.cpu0.dcache.WriteReq_misses::cpu0.data        10474                       # number of WriteReq misses
system.cpu0.dcache.WriteReq_misses::total        10474                       # number of WriteReq misses
system.cpu0.dcache.LoadLockedReq_misses::cpu0.data          220                       # number of LoadLockedReq misses
system.cpu0.dcache.LoadLockedReq_misses::total          220                       # number of LoadLockedReq misses
system.cpu0.dcache.StoreCondReq_misses::cpu0.data          978                       # number of StoreCondReq misses
system.cpu0.dcache.StoreCondReq_misses::total          978                       # number of StoreCondReq misses
system.cpu0.dcache.demand_misses::cpu0.data        17142                       # number of demand (read+write) misses
system.cpu0.dcache.demand_misses::total         17142                       # number of demand (read+write) misses
system.cpu0.dcache.overall_misses::cpu0.data        17142                       # number of overall misses
system.cpu0.dcache.overall_misses::total        17142                       # number of overall misses
system.cpu0.dcache.ReadReq_miss_latency::cpu0.data    150860000                       # number of ReadReq miss cycles
system.cpu0.dcache.ReadReq_miss_latency::total    150860000                       # number of ReadReq miss cycles
system.cpu0.dcache.WriteReq_miss_latency::cpu0.data    291437890                       # number of WriteReq miss cycles
system.cpu0.dcache.WriteReq_miss_latency::total    291437890                       # number of WriteReq miss cycles
system.cpu0.dcache.LoadLockedReq_miss_latency::cpu0.data      1996000                       # number of LoadLockedReq miss cycles
system.cpu0.dcache.LoadLockedReq_miss_latency::total      1996000                       # number of LoadLockedReq miss cycles
system.cpu0.dcache.StoreCondReq_miss_latency::cpu0.data     10152000                       # number of StoreCondReq miss cycles
system.cpu0.dcache.StoreCondReq_miss_latency::total     10152000                       # number of StoreCondReq miss cycles
system.cpu0.dcache.StoreCondFailReq_miss_latency::cpu0.data       142000                       # number of StoreCondFailReq miss cycles
system.cpu0.dcache.StoreCondFailReq_miss_latency::total       142000                       # number of StoreCondFailReq miss cycles
system.cpu0.dcache.demand_miss_latency::cpu0.data    442297890                       # number of demand (read+write) miss cycles
system.cpu0.dcache.demand_miss_latency::total    442297890                       # number of demand (read+write) miss cycles
system.cpu0.dcache.overall_miss_latency::cpu0.data    442297890                       # number of overall miss cycles
system.cpu0.dcache.overall_miss_latency::total    442297890                       # number of overall miss cycles
system.cpu0.dcache.ReadReq_accesses::cpu0.data     14647241                       # number of ReadReq accesses(hits+misses)
system.cpu0.dcache.ReadReq_accesses::total     14647241                       # number of ReadReq accesses(hits+misses)
system.cpu0.dcache.WriteReq_accesses::cpu0.data     10621568                       # number of WriteReq accesses(hits+misses)
system.cpu0.dcache.WriteReq_accesses::total     10621568                       # number of WriteReq accesses(hits+misses)
system.cpu0.dcache.LoadLockedReq_accesses::cpu0.data         7512                       # number of LoadLockedReq accesses(hits+misses)
system.cpu0.dcache.LoadLockedReq_accesses::total         7512                       # number of LoadLockedReq accesses(hits+misses)
system.cpu0.dcache.StoreCondReq_accesses::cpu0.data         7334                       # number of StoreCondReq accesses(hits+misses)
system.cpu0.dcache.StoreCondReq_accesses::total         7334                       # number of StoreCondReq accesses(hits+misses)
system.cpu0.dcache.demand_accesses::cpu0.data     25268809                       # number of demand (read+write) accesses
system.cpu0.dcache.demand_accesses::total     25268809                       # number of demand (read+write) accesses
system.cpu0.dcache.overall_accesses::cpu0.data     25268809                       # number of overall (read+write) accesses
system.cpu0.dcache.overall_accesses::total     25268809                       # number of overall (read+write) accesses
system.cpu0.dcache.ReadReq_miss_rate::cpu0.data     0.000455                       # miss rate for ReadReq accesses
system.cpu0.dcache.ReadReq_miss_rate::total     0.000455                       # miss rate for ReadReq accesses
system.cpu0.dcache.WriteReq_miss_rate::cpu0.data     0.000986                       # miss rate for WriteReq accesses
system.cpu0.dcache.WriteReq_miss_rate::total     0.000986                       # miss rate for WriteReq accesses
system.cpu0.dcache.LoadLockedReq_miss_rate::cpu0.data     0.029286                       # miss rate for LoadLockedReq accesses
system.cpu0.dcache.LoadLockedReq_miss_rate::total     0.029286                       # miss rate for LoadLockedReq accesses
system.cpu0.dcache.StoreCondReq_miss_rate::cpu0.data     0.133352                       # miss rate for StoreCondReq accesses
system.cpu0.dcache.StoreCondReq_miss_rate::total     0.133352                       # miss rate for StoreCondReq accesses
system.cpu0.dcache.demand_miss_rate::cpu0.data     0.000678                       # miss rate for demand accesses
system.cpu0.dcache.demand_miss_rate::total     0.000678                       # miss rate for demand accesses
system.cpu0.dcache.overall_miss_rate::cpu0.data     0.000678                       # miss rate for overall accesses
system.cpu0.dcache.overall_miss_rate::total     0.000678                       # miss rate for overall accesses
system.cpu0.dcache.ReadReq_avg_miss_latency::cpu0.data 22624.475105                       # average ReadReq miss latency
system.cpu0.dcache.ReadReq_avg_miss_latency::total 22624.475105                       # average ReadReq miss latency
system.cpu0.dcache.WriteReq_avg_miss_latency::cpu0.data 27824.889250                       # average WriteReq miss latency
system.cpu0.dcache.WriteReq_avg_miss_latency::total 27824.889250                       # average WriteReq miss latency
system.cpu0.dcache.LoadLockedReq_avg_miss_latency::cpu0.data  9072.727273                       # average LoadLockedReq miss latency
system.cpu0.dcache.LoadLockedReq_avg_miss_latency::total  9072.727273                       # average LoadLockedReq miss latency
system.cpu0.dcache.StoreCondReq_avg_miss_latency::cpu0.data 10380.368098                       # average StoreCondReq miss latency
system.cpu0.dcache.StoreCondReq_avg_miss_latency::total 10380.368098                       # average StoreCondReq miss latency
system.cpu0.dcache.StoreCondFailReq_avg_miss_latency::cpu0.data          inf                       # average StoreCondFailReq miss latency
system.cpu0.dcache.StoreCondFailReq_avg_miss_latency::total          inf                       # average StoreCondFailReq miss latency
system.cpu0.dcache.demand_avg_miss_latency::cpu0.data 25802.000350                       # average overall miss latency
system.cpu0.dcache.demand_avg_miss_latency::total 25802.000350                       # average overall miss latency
system.cpu0.dcache.overall_avg_miss_latency::cpu0.data 25802.000350                       # average overall miss latency
system.cpu0.dcache.overall_avg_miss_latency::total 25802.000350                       # average overall miss latency
system.cpu0.dcache.blocked_cycles::no_mshrs         3076                       # number of cycles access was blocked
system.cpu0.dcache.blocked_cycles::no_targets            0                       # number of cycles access was blocked
system.cpu0.dcache.blocked::no_mshrs              216                       # number of cycles access was blocked
system.cpu0.dcache.blocked::no_targets              0                       # number of cycles access was blocked
system.cpu0.dcache.avg_blocked_cycles::no_mshrs    14.240741                       # average number of cycles each access was blocked
system.cpu0.dcache.avg_blocked_cycles::no_targets          nan                       # average number of cycles each access was blocked
system.cpu0.dcache.writebacks::writebacks         7553                       # number of writebacks
system.cpu0.dcache.writebacks::total             7553                       # number of writebacks
system.cpu0.dcache.ReadReq_mshr_hits::cpu0.data         3057                       # number of ReadReq MSHR hits
system.cpu0.dcache.ReadReq_mshr_hits::total         3057                       # number of ReadReq MSHR hits
system.cpu0.dcache.WriteReq_mshr_hits::cpu0.data         2989                       # number of WriteReq MSHR hits
system.cpu0.dcache.WriteReq_mshr_hits::total         2989                       # number of WriteReq MSHR hits
system.cpu0.dcache.LoadLockedReq_mshr_hits::cpu0.data           91                       # number of LoadLockedReq MSHR hits
system.cpu0.dcache.LoadLockedReq_mshr_hits::total           91                       # number of LoadLockedReq MSHR hits
system.cpu0.dcache.demand_mshr_hits::cpu0.data         6046                       # number of demand (read+write) MSHR hits
system.cpu0.dcache.demand_mshr_hits::total         6046                       # number of demand (read+write) MSHR hits
system.cpu0.dcache.overall_mshr_hits::cpu0.data         6046                       # number of overall MSHR hits
system.cpu0.dcache.overall_mshr_hits::total         6046                       # number of overall MSHR hits
system.cpu0.dcache.ReadReq_mshr_misses::cpu0.data         3611                       # number of ReadReq MSHR misses
system.cpu0.dcache.ReadReq_mshr_misses::total         3611                       # number of ReadReq MSHR misses
system.cpu0.dcache.WriteReq_mshr_misses::cpu0.data         7485                       # number of WriteReq MSHR misses
system.cpu0.dcache.WriteReq_mshr_misses::total         7485                       # number of WriteReq MSHR misses
system.cpu0.dcache.LoadLockedReq_mshr_misses::cpu0.data          129                       # number of LoadLockedReq MSHR misses
system.cpu0.dcache.LoadLockedReq_mshr_misses::total          129                       # number of LoadLockedReq MSHR misses
system.cpu0.dcache.StoreCondReq_mshr_misses::cpu0.data          978                       # number of StoreCondReq MSHR misses
system.cpu0.dcache.StoreCondReq_mshr_misses::total          978                       # number of StoreCondReq MSHR misses
system.cpu0.dcache.demand_mshr_misses::cpu0.data        11096                       # number of demand (read+write) MSHR misses
system.cpu0.dcache.demand_mshr_misses::total        11096                       # number of demand (read+write) MSHR misses
system.cpu0.dcache.overall_mshr_misses::cpu0.data        11096                       # number of overall MSHR misses
system.cpu0.dcache.overall_mshr_misses::total        11096                       # number of overall MSHR misses
system.cpu0.dcache.ReadReq_mshr_miss_latency::cpu0.data     64263000                       # number of ReadReq MSHR miss cycles
system.cpu0.dcache.ReadReq_mshr_miss_latency::total     64263000                       # number of ReadReq MSHR miss cycles
system.cpu0.dcache.WriteReq_mshr_miss_latency::cpu0.data    151706434                       # number of WriteReq MSHR miss cycles
system.cpu0.dcache.WriteReq_mshr_miss_latency::total    151706434                       # number of WriteReq MSHR miss cycles
system.cpu0.dcache.LoadLockedReq_mshr_miss_latency::cpu0.data       808500                       # number of LoadLockedReq MSHR miss cycles
system.cpu0.dcache.LoadLockedReq_mshr_miss_latency::total       808500                       # number of LoadLockedReq MSHR miss cycles
system.cpu0.dcache.StoreCondReq_mshr_miss_latency::cpu0.data      8220500                       # number of StoreCondReq MSHR miss cycles
system.cpu0.dcache.StoreCondReq_mshr_miss_latency::total      8220500                       # number of StoreCondReq MSHR miss cycles
system.cpu0.dcache.StoreCondFailReq_mshr_miss_latency::cpu0.data       115500                       # number of StoreCondFailReq MSHR miss cycles
system.cpu0.dcache.StoreCondFailReq_mshr_miss_latency::total       115500                       # number of StoreCondFailReq MSHR miss cycles
system.cpu0.dcache.demand_mshr_miss_latency::cpu0.data    215969434                       # number of demand (read+write) MSHR miss cycles
system.cpu0.dcache.demand_mshr_miss_latency::total    215969434                       # number of demand (read+write) MSHR miss cycles
system.cpu0.dcache.overall_mshr_miss_latency::cpu0.data    215969434                       # number of overall MSHR miss cycles
system.cpu0.dcache.overall_mshr_miss_latency::total    215969434                       # number of overall MSHR miss cycles
system.cpu0.dcache.ReadReq_mshr_miss_rate::cpu0.data     0.000247                       # mshr miss rate for ReadReq accesses
system.cpu0.dcache.ReadReq_mshr_miss_rate::total     0.000247                       # mshr miss rate for ReadReq accesses
system.cpu0.dcache.WriteReq_mshr_miss_rate::cpu0.data     0.000705                       # mshr miss rate for WriteReq accesses
system.cpu0.dcache.WriteReq_mshr_miss_rate::total     0.000705                       # mshr miss rate for WriteReq accesses
system.cpu0.dcache.LoadLockedReq_mshr_miss_rate::cpu0.data     0.017173                       # mshr miss rate for LoadLockedReq accesses
system.cpu0.dcache.LoadLockedReq_mshr_miss_rate::total     0.017173                       # mshr miss rate for LoadLockedReq accesses
system.cpu0.dcache.StoreCondReq_mshr_miss_rate::cpu0.data     0.133352                       # mshr miss rate for StoreCondReq accesses
system.cpu0.dcache.StoreCondReq_mshr_miss_rate::total     0.133352                       # mshr miss rate for StoreCondReq accesses
system.cpu0.dcache.demand_mshr_miss_rate::cpu0.data     0.000439                       # mshr miss rate for demand accesses
system.cpu0.dcache.demand_mshr_miss_rate::total     0.000439                       # mshr miss rate for demand accesses
system.cpu0.dcache.overall_mshr_miss_rate::cpu0.data     0.000439                       # mshr miss rate for overall accesses
system.cpu0.dcache.overall_mshr_miss_rate::total     0.000439                       # mshr miss rate for overall accesses
system.cpu0.dcache.ReadReq_avg_mshr_miss_latency::cpu0.data 17796.455276                       # average ReadReq mshr miss latency
system.cpu0.dcache.ReadReq_avg_mshr_miss_latency::total 17796.455276                       # average ReadReq mshr miss latency
system.cpu0.dcache.WriteReq_avg_mshr_miss_latency::cpu0.data 20268.060655                       # average WriteReq mshr miss latency
system.cpu0.dcache.WriteReq_avg_mshr_miss_latency::total 20268.060655                       # average WriteReq mshr miss latency
system.cpu0.dcache.LoadLockedReq_avg_mshr_miss_latency::cpu0.data  6267.441860                       # average LoadLockedReq mshr miss latency
system.cpu0.dcache.LoadLockedReq_avg_mshr_miss_latency::total  6267.441860                       # average LoadLockedReq mshr miss latency
system.cpu0.dcache.StoreCondReq_avg_mshr_miss_latency::cpu0.data  8405.419223                       # average StoreCondReq mshr miss latency
[...]
system.l2.ReadSharedReq_avg_mshr_miss_latency::cpu4.data 51420.289855                       # average ReadSharedReq mshr miss latency
system.l2.ReadSharedReq_avg_mshr_miss_latency::cpu5.data 51326.315789                       # average ReadSharedReq mshr miss latency
system.l2.ReadSharedReq_avg_mshr_miss_latency::total 51383.466135                       # average ReadSharedReq mshr miss latency
system.l2.demand_avg_mshr_miss_latency::cpu0.inst 51310.215947                       # average overall mshr miss latency
system.l2.demand_avg_mshr_miss_latency::cpu0.data 51402.376365                       # average overall mshr miss latency
system.l2.demand_avg_mshr_miss_latency::cpu1.inst 51296.875000                       # average overall mshr miss latency
system.l2.demand_avg_mshr_miss_latency::cpu1.data 51432.975871                       # average overall mshr miss latency
system.l2.demand_avg_mshr_miss_latency::cpu2.inst 51318.181818                       # average overall mshr miss latency
system.l2.demand_avg_mshr_miss_latency::cpu2.data 51441.054092                       # average overall mshr miss latency
system.l2.demand_avg_mshr_miss_latency::cpu3.inst 51318.181818                       # average overall mshr miss latency
system.l2.demand_avg_mshr_miss_latency::cpu3.data 51215.374841                       # average overall mshr miss latency
system.l2.demand_avg_mshr_miss_latency::cpu4.inst 51276.627219                       # average overall mshr miss latency
system.l2.demand_avg_mshr_miss_latency::cpu4.data 51438.010899                       # average overall mshr miss latency
system.l2.demand_avg_mshr_miss_latency::cpu5.inst 51116.838488                       # average overall mshr miss latency
system.l2.demand_avg_mshr_miss_latency::cpu5.data 51438.316401                       # average overall mshr miss latency
system.l2.demand_avg_mshr_miss_latency::total 51352.249832                       # average overall mshr miss latency
system.l2.overall_avg_mshr_miss_latency::cpu0.inst 51310.215947                       # average overall mshr miss latency
system.l2.overall_avg_mshr_miss_latency::cpu0.data 51402.376365                       # average overall mshr miss latency
system.l2.overall_avg_mshr_miss_latency::cpu1.inst 51296.875000                       # average overall mshr miss latency
system.l2.overall_avg_mshr_miss_latency::cpu1.data 51432.975871                       # average overall mshr miss latency
system.l2.overall_avg_mshr_miss_latency::cpu2.inst 51318.181818                       # average overall mshr miss latency
system.l2.overall_avg_mshr_miss_latency::cpu2.data 51441.054092                       # average overall mshr miss latency
system.l2.overall_avg_mshr_miss_latency::cpu3.inst 51318.181818                       # average overall mshr miss latency
system.l2.overall_avg_mshr_miss_latency::cpu3.data 51215.374841                       # average overall mshr miss latency
system.l2.overall_avg_mshr_miss_latency::cpu4.inst 51276.627219                       # average overall mshr miss latency
system.l2.overall_avg_mshr_miss_latency::cpu4.data 51438.010899                       # average overall mshr miss latency
system.l2.overall_avg_mshr_miss_latency::cpu5.inst 51116.838488                       # average overall mshr miss latency
system.l2.overall_avg_mshr_miss_latency::cpu5.data 51438.316401                       # average overall mshr miss latency
system.l2.overall_avg_mshr_miss_latency::total 51352.249832                       # average overall mshr miss latency
system.membus.snoop_filter.tot_requests         22854                       # Total number of requests made to the snoop filter.
system.membus.snoop_filter.hit_single_requests        14815                       # Number of requests hitting in the snoop filter with a single holder of the requested data.
system.membus.snoop_filter.hit_multi_requests            0                       # Number of requests hitting in the snoop filter with multiple (>1) holders of the requested data.
system.membus.snoop_filter.tot_snoops               0                       # Total number of snoops made to the snoop filter.
system.membus.snoop_filter.hit_single_snoops            0                       # Number of snoops hitting in the snoop filter with a single holder of the requested data.
system.membus.snoop_filter.hit_multi_snoops            0                       # Number of snoops hitting in the snoop filter with multiple (>1) holders of the requested data.
system.membus.pwrStateResidencyTicks::UNDEFINED 110881698000                       # Cumulative time (in ticks) in various power states
system.membus.trans_dist::ReadResp               3215                       # Transaction distribution
system.membus.trans_dist::WritebackDirty         1799                       # Transaction distribution
system.membus.trans_dist::CleanEvict             1330                       # Transaction distribution
system.membus.trans_dist::UpgradeReq             5057                       # Transaction distribution
system.membus.trans_dist::SCUpgradeReq           6416                       # Transaction distribution
system.membus.trans_dist::ReadExReq              4282                       # Transaction distribution
system.membus.trans_dist::ReadExResp             4227                       # Transaction distribution
system.membus.trans_dist::ReadSharedReq          3215                       # Transaction distribution
system.membus.pkt_count_system.l2.mem_side::system.physmem.port        29541                       # Packet count per connected master and slave (bytes)
system.membus.pkt_count::total                  29541                       # Packet count per connected master and slave (bytes)
system.membus.pkt_size_system.l2.mem_side::system.physmem.port       591424                       # Cumulative packet size per connected master and slave (bytes)
system.membus.pkt_size::total                  591424                       # Cumulative packet size per connected master and slave (bytes)
system.membus.snoops                            11508                       # Total snoops (count)
system.membus.snoopTraffic                          0                       # Total snoop traffic (bytes)
system.membus.snoop_fanout::samples             19641                       # Request fanout histogram
system.membus.snoop_fanout::mean                    0                       # Request fanout histogram
system.membus.snoop_fanout::stdev                   0                       # Request fanout histogram
system.membus.snoop_fanout::underflows              0      0.00%      0.00% # Request fanout histogram
system.membus.snoop_fanout::0                   19641    100.00%    100.00% # Request fanout histogram
system.membus.snoop_fanout::1                       0      0.00%    100.00% # Request fanout histogram
system.membus.snoop_fanout::overflows               0      0.00%    100.00% # Request fanout histogram
system.membus.snoop_fanout::min_value               0                       # Request fanout histogram
system.membus.snoop_fanout::max_value               0                       # Request fanout histogram
system.membus.snoop_fanout::total               19641                       # Request fanout histogram
system.membus.reqLayer0.occupancy            22470596                       # Layer occupancy (ticks)
system.membus.reqLayer0.utilization               0.0                       # Layer utilization (%)
system.membus.respLayer1.occupancy           37210000                       # Layer occupancy (ticks)
system.membus.respLayer1.utilization              0.0                       # Layer utilization (%)
system.tol2bus.snoop_filter.tot_requests      1658992                       # Total number of requests made to the snoop filter.
system.tol2bus.snoop_filter.hit_single_requests       514921                       # Number of requests hitting in the snoop filter with a single holder of the requested data.
system.tol2bus.snoop_filter.hit_multi_requests       789552                       # Number of requests hitting in the snoop filter with multiple (>1) holders of the requested data.
system.tol2bus.snoop_filter.tot_snoops            937                       # Total number of snoops made to the snoop filter.
system.tol2bus.snoop_filter.hit_single_snoops          812                       # Number of snoops hitting in the snoop filter with a single holder of the requested data.
system.tol2bus.snoop_filter.hit_multi_snoops          125                       # Number of snoops hitting in the snoop filter with multiple (>1) holders of the requested data.
system.tol2bus.pwrStateResidencyTicks::UNDEFINED 110881698000                       # Cumulative time (in ticks) in various power states
system.tol2bus.trans_dist::ReadResp            815977                       # Transaction distribution
system.tol2bus.trans_dist::ReadRespWithInvalidate            4                       # Transaction distribution
system.tol2bus.trans_dist::WritebackDirty        16126                       # Transaction distribution
system.tol2bus.trans_dist::WritebackClean       786633                       # Transaction distribution
system.tol2bus.trans_dist::CleanEvict            9737                       # Transaction distribution
system.tol2bus.trans_dist::UpgradeReq            6009                       # Transaction distribution
system.tol2bus.trans_dist::SCUpgradeReq          7748                       # Transaction distribution
system.tol2bus.trans_dist::UpgradeResp          13757                       # Transaction distribution
system.tol2bus.trans_dist::SCUpgradeFailReq           94                       # Transaction distribution
system.tol2bus.trans_dist::UpgradeFailResp           94                       # Transaction distribution
system.tol2bus.trans_dist::ReadExReq            20699                       # Transaction distribution
system.tol2bus.trans_dist::ReadExResp           20699                       # Transaction distribution
system.tol2bus.trans_dist::ReadCleanReq        788182                       # Transaction distribution
system.tol2bus.trans_dist::ReadSharedReq        27799                       # Transaction distribution
system.tol2bus.pkt_count_system.cpu0.icache.mem_side::system.l2.cpu_side       983930                       # Packet count per connected master and slave (bytes)
system.tol2bus.pkt_count_system.cpu0.dcache.mem_side::system.l2.cpu_side        31785                       # Packet count per connected master and slave (bytes)
system.tol2bus.pkt_count_system.cpu1.icache.mem_side::system.l2.cpu_side       295382                       # Packet count per connected master and slave (bytes)
system.tol2bus.pkt_count_system.cpu1.dcache.mem_side::system.l2.cpu_side        22858                       # Packet count per connected master and slave (bytes)
system.tol2bus.pkt_count_system.cpu2.icache.mem_side::system.l2.cpu_side       287783                       # Packet count per connected master and slave (bytes)
system.tol2bus.pkt_count_system.cpu2.dcache.mem_side::system.l2.cpu_side        10493                       # Packet count per connected master and slave (bytes)
system.tol2bus.pkt_count_system.cpu3.icache.mem_side::system.l2.cpu_side       292925                       # Packet count per connected master and slave (bytes)
system.tol2bus.pkt_count_system.cpu3.dcache.mem_side::system.l2.cpu_side        23487                       # Packet count per connected master and slave (bytes)
system.tol2bus.pkt_count_system.cpu4.icache.mem_side::system.l2.cpu_side       287711                       # Packet count per connected master and slave (bytes)
system.tol2bus.pkt_count_system.cpu4.dcache.mem_side::system.l2.cpu_side        11013                       # Packet count per connected master and slave (bytes)
system.tol2bus.pkt_count_system.cpu5.icache.mem_side::system.l2.cpu_side       215255                       # Packet count per connected master and slave (bytes)
system.tol2bus.pkt_count_system.cpu5.dcache.mem_side::system.l2.cpu_side         9722                       # Packet count per connected master and slave (bytes)
system.tol2bus.pkt_count::total               2472344                       # Packet count per connected master and slave (bytes)
system.tol2bus.pkt_size_system.cpu0.icache.mem_side::system.l2.cpu_side     41975552                       # Cumulative packet size per connected master and slave (bytes)
system.tol2bus.pkt_size_system.cpu0.dcache.mem_side::system.l2.cpu_side      1105152                       # Cumulative packet size per connected master and slave (bytes)
system.tol2bus.pkt_size_system.cpu1.icache.mem_side::system.l2.cpu_side     12597376                       # Cumulative packet size per connected master and slave (bytes)
system.tol2bus.pkt_size_system.cpu1.dcache.mem_side::system.l2.cpu_side       261824                       # Cumulative packet size per connected master and slave (bytes)
system.tol2bus.pkt_size_system.cpu2.icache.mem_side::system.l2.cpu_side     12273280                       # Cumulative packet size per connected master and slave (bytes)
system.tol2bus.pkt_size_system.cpu2.dcache.mem_side::system.l2.cpu_side       243008                       # Cumulative packet size per connected master and slave (bytes)
system.tol2bus.pkt_size_system.cpu3.icache.mem_side::system.l2.cpu_side     12492288                       # Cumulative packet size per connected master and slave (bytes)
system.tol2bus.pkt_size_system.cpu3.dcache.mem_side::system.l2.cpu_side       298752                       # Cumulative packet size per connected master and slave (bytes)
system.tol2bus.pkt_size_system.cpu4.icache.mem_side::system.l2.cpu_side     12270208                       # Cumulative packet size per connected master and slave (bytes)
system.tol2bus.pkt_size_system.cpu4.dcache.mem_side::system.l2.cpu_side       270464                       # Cumulative packet size per connected master and slave (bytes)
system.tol2bus.pkt_size_system.cpu5.icache.mem_side::system.l2.cpu_side      9178752                       # Cumulative packet size per connected master and slave (bytes)
system.tol2bus.pkt_size_system.cpu5.dcache.mem_side::system.l2.cpu_side       201920                       # Cumulative packet size per connected master and slave (bytes)
system.tol2bus.pkt_size::total              103168576                       # Cumulative packet size per connected master and slave (bytes)
system.tol2bus.snoops                           41214                       # Total snoops (count)
system.tol2bus.snoopTraffic                   1761536                       # Total snoop traffic (bytes)
system.tol2bus.snoop_fanout::samples           854568                       # Request fanout histogram
system.tol2bus.snoop_fanout::mean            1.448714                       # Request fanout histogram
system.tol2bus.snoop_fanout::stdev           1.710391                       # Request fanout histogram
system.tol2bus.snoop_fanout::underflows             0      0.00%      0.00% # Request fanout histogram
system.tol2bus.snoop_fanout::0                 357668     41.85%     41.85% # Request fanout histogram
system.tol2bus.snoop_fanout::1                 175491     20.54%     62.39% # Request fanout histogram
system.tol2bus.snoop_fanout::2                 105026     12.29%     74.68% # Request fanout histogram
system.tol2bus.snoop_fanout::3                 107285     12.55%     87.23% # Request fanout histogram
system.tol2bus.snoop_fanout::4                  46866      5.48%     92.72% # Request fanout histogram
system.tol2bus.snoop_fanout::5                  49535      5.80%     98.51% # Request fanout histogram
system.tol2bus.snoop_fanout::6                   3607      0.42%     98.94% # Request fanout histogram
system.tol2bus.snoop_fanout::7                   3883      0.45%     99.39% # Request fanout histogram
system.tol2bus.snoop_fanout::8                   2318      0.27%     99.66% # Request fanout histogram
system.tol2bus.snoop_fanout::9                   1457      0.17%     99.83% # Request fanout histogram
system.tol2bus.snoop_fanout::10                   744      0.09%     99.92% # Request fanout histogram
system.tol2bus.snoop_fanout::11                   688      0.08%    100.00% # Request fanout histogram
system.tol2bus.snoop_fanout::12                     0      0.00%    100.00% # Request fanout histogram
system.tol2bus.snoop_fanout::13                     0      0.00%    100.00% # Request fanout histogram
system.tol2bus.snoop_fanout::14                     0      0.00%    100.00% # Request fanout histogram
system.tol2bus.snoop_fanout::15                     0      0.00%    100.00% # Request fanout histogram
system.tol2bus.snoop_fanout::16                     0      0.00%    100.00% # Request fanout histogram
system.tol2bus.snoop_fanout::overflows              0      0.00%    100.00% # Request fanout histogram
system.tol2bus.snoop_fanout::min_value              0                       # Request fanout histogram
system.tol2bus.snoop_fanout::max_value             11                       # Request fanout histogram
system.tol2bus.snoop_fanout::total             854568                       # Request fanout histogram
system.tol2bus.reqLayer0.occupancy         1630488934                       # Layer occupancy (ticks)
system.tol2bus.reqLayer0.utilization              1.5                       # Layer utilization (%)
system.tol2bus.respLayer0.occupancy         492276578                       # Layer occupancy (ticks)
system.tol2bus.respLayer0.utilization             0.4                       # Layer utilization (%)
system.tol2bus.respLayer1.occupancy          17230388                       # Layer occupancy (ticks)
system.tol2bus.respLayer1.utilization             0.0                       # Layer utilization (%)
system.tol2bus.respLayer4.occupancy         147998570                       # Layer occupancy (ticks)
system.tol2bus.respLayer4.utilization             0.1                       # Layer utilization (%)
system.tol2bus.respLayer5.occupancy          20132373                       # Layer occupancy (ticks)
system.tol2bus.respLayer5.utilization             0.0                       # Layer utilization (%)
system.tol2bus.respLayer8.occupancy         144173625                       # Layer occupancy (ticks)
system.tol2bus.respLayer8.utilization             0.1                       # Layer utilization (%)
system.tol2bus.respLayer9.occupancy           7033900                       # Layer occupancy (ticks)
system.tol2bus.respLayer9.utilization             0.0                       # Layer utilization (%)
system.tol2bus.respLayer12.occupancy        146774082                       # Layer occupancy (ticks)
system.tol2bus.respLayer12.utilization            0.1                       # Layer utilization (%)
system.tol2bus.respLayer13.occupancy         20497869                       # Layer occupancy (ticks)
system.tol2bus.respLayer13.utilization            0.0                       # Layer utilization (%)
system.tol2bus.respLayer16.occupancy        144159142                       # Layer occupancy (ticks)
system.tol2bus.respLayer16.utilization            0.1                       # Layer utilization (%)
system.tol2bus.respLayer17.occupancy          7334422                       # Layer occupancy (ticks)
system.tol2bus.respLayer17.utilization            0.0                       # Layer utilization (%)
system.tol2bus.respLayer20.occupancy        107912177                       # Layer occupancy (ticks)
system.tol2bus.respLayer20.utilization            0.1                       # Layer utilization (%)
system.tol2bus.respLayer21.occupancy          7778951                       # Layer occupancy (ticks)
system.tol2bus.respLayer21.utilization            0.0                       # Layer utilization (%)

---------- End Simulation Statistics   ----------
