
---------- Begin Simulation Statistics ----------
sim_seconds                                  0.170580                       # Number of seconds simulated
sim_ticks                                170579785000                       # Number of ticks simulated
final_tick                               170579785000                       # Number of ticks from beginning of simulation (restored from checkpoints and never reset)
sim_freq                                 1000000000000                       # Frequency of simulated ticks
host_inst_rate                                 236935                       # Simulator instruction rate (inst/s)
host_op_rate                                   260184                       # Simulator op (including micro ops) rate (op/s)
host_tick_rate                               52213095                       # Simulator tick rate (ticks/s)
host_mem_usage                                 721292                       # Number of bytes of host memory used
host_seconds                                  3266.99                       # Real time elapsed on the host
sim_insts                                   774065505                       # Number of instructions simulated
sim_ops                                     850019933                       # Number of ops (including micro ops) simulated
system.voltage_domain.voltage                       1                       # Voltage in Volts
system.clk_domain.clock                          1000                       # Clock period in ticks
system.physmem.pwrStateResidencyTicks::UNDEFINED 170579785000                       # Cumulative time (in ticks) in various power states
system.physmem.bytes_read::cpu0.inst        133284736                       # Number of bytes read from this memory
system.physmem.bytes_read::cpu0.data         33821120                       # Number of bytes read from this memory
system.physmem.bytes_read::cpu1.inst         49672128                       # Number of bytes read from this memory
system.physmem.bytes_read::cpu1.data          9122944                       # Number of bytes read from this memory
system.physmem.bytes_read::cpu2.inst         49859968                       # Number of bytes read from this memory
system.physmem.bytes_read::cpu2.data          9103488                       # Number of bytes read from this memory
system.physmem.bytes_read::cpu3.inst         49857024                       # Number of bytes read from this memory
system.physmem.bytes_read::cpu3.data          9164864                       # Number of bytes read from this memory
system.physmem.bytes_read::cpu4.inst         49840832                       # Number of bytes read from this memory
system.physmem.bytes_read::cpu4.data          9196224                       # Number of bytes read from this memory
system.physmem.bytes_read::cpu5.inst         49898176                       # Number of bytes read from this memory
system.physmem.bytes_read::cpu5.data          9151360                       # Number of bytes read from this memory
system.physmem.bytes_read::cpu6.inst         49854080                       # Number of bytes read from this memory
system.physmem.bytes_read::cpu6.data          9129664                       # Number of bytes read from this memory
system.physmem.bytes_read::cpu7.inst         33295424                       # Number of bytes read from this memory
system.physmem.bytes_read::cpu7.data          6082560                       # Number of bytes read from this memory
system.physmem.bytes_read::total            560334592                       # Number of bytes read from this memory
system.physmem.bytes_inst_read::cpu0.inst    133284736                       # Number of instructions bytes read from this memory
system.physmem.bytes_inst_read::cpu1.inst     49672128                       # Number of instructions bytes read from this memory
system.physmem.bytes_inst_read::cpu2.inst     49859968                       # Number of instructions bytes read from this memory
system.physmem.bytes_inst_read::cpu3.inst     49857024                       # Number of instructions bytes read from this memory
system.physmem.bytes_inst_read::cpu4.inst     49840832                       # Number of instructions bytes read from this memory
system.physmem.bytes_inst_read::cpu5.inst     49898176                       # Number of instructions bytes read from this memory
system.physmem.bytes_inst_read::cpu6.inst     49854080                       # Number of instructions bytes read from this memory
system.physmem.bytes_inst_read::cpu7.inst     33295424                       # Number of instructions bytes read from this memory
system.physmem.bytes_inst_read::total       465562368                       # Number of instructions bytes read from this memory
system.physmem.bytes_written::writebacks     27202240                       # Number of bytes written to this memory
system.physmem.bytes_written::total          27202240                       # Number of bytes written to this memory
system.physmem.num_reads::cpu0.inst           2082574                       # Number of read requests responded to by this memory
system.physmem.num_reads::cpu0.data            528455                       # Number of read requests responded to by this memory
system.physmem.num_reads::cpu1.inst            776127                       # Number of read requests responded to by this memory
system.physmem.num_reads::cpu1.data            142546                       # Number of read requests responded to by this memory
system.physmem.num_reads::cpu2.inst            779062                       # Number of read requests responded to by this memory
system.physmem.num_reads::cpu2.data            142242                       # Number of read requests responded to by this memory
system.physmem.num_reads::cpu3.inst            779016                       # Number of read requests responded to by this memory
system.physmem.num_reads::cpu3.data            143201                       # Number of read requests responded to by this memory
system.physmem.num_reads::cpu4.inst            778763                       # Number of read requests responded to by this memory
system.physmem.num_reads::cpu4.data            143691                       # Number of read requests responded to by this memory
system.physmem.num_reads::cpu5.inst            779659                       # Number of read requests responded to by this memory
system.physmem.num_reads::cpu5.data            142990                       # Number of read requests responded to by this memory
system.physmem.num_reads::cpu6.inst            778970                       # Number of read requests responded to by this memory
system.physmem.num_reads::cpu6.data            142651                       # Number of read requests responded to by this memory
system.physmem.num_reads::cpu7.inst            520241                       # Number of read requests responded to by this memory
system.physmem.num_reads::cpu7.data             95040                       # Number of read requests responded to by this memory
system.physmem.num_reads::total               8755228                       # Number of read requests responded to by this memory
system.physmem.num_writes::writebacks          425035                       # Number of write requests responded to by this memory
system.physmem.num_writes::total               425035                       # Number of write requests responded to by this memory
system.physmem.bw_read::cpu0.inst           781363020                       # Total read bandwidth from this memory (bytes/s)
system.physmem.bw_read::cpu0.data           198271560                       # Total read bandwidth from this memory (bytes/s)
system.physmem.bw_read::cpu1.inst           291195865                       # Total read bandwidth from this memory (bytes/s)
system.physmem.bw_read::cpu1.data            53481976                       # Total read bandwidth from this memory (bytes/s)
system.physmem.bw_read::cpu2.inst           292297050                       # Total read bandwidth from this memory (bytes/s)
system.physmem.bw_read::cpu2.data            53367918                       # Total read bandwidth from this memory (bytes/s)
system.physmem.bw_read::cpu3.inst           292279792                       # Total read bandwidth from this memory (bytes/s)
system.physmem.bw_read::cpu3.data            53727726                       # Total read bandwidth from this memory (bytes/s)
system.physmem.bw_read::cpu4.inst           292184868                       # Total read bandwidth from this memory (bytes/s)
system.physmem.bw_read::cpu4.data            53911570                       # Total read bandwidth from this memory (bytes/s)
system.physmem.bw_read::cpu5.inst           292521039                       # Total read bandwidth from this memory (bytes/s)
system.physmem.bw_read::cpu5.data            53648561                       # Total read bandwidth from this memory (bytes/s)
system.physmem.bw_read::cpu6.inst           292262533                       # Total read bandwidth from this memory (bytes/s)
system.physmem.bw_read::cpu6.data            53521371                       # Total read bandwidth from this memory (bytes/s)
system.physmem.bw_read::cpu7.inst           195189741                       # Total read bandwidth from this memory (bytes/s)
system.physmem.bw_read::cpu7.data            35658153                       # Total read bandwidth from this memory (bytes/s)
system.physmem.bw_read::total              3284882743                       # Total read bandwidth from this memory (bytes/s)
system.physmem.bw_inst_read::cpu0.inst      781363020                       # Instruction read bandwidth from this memory (bytes/s)
system.physmem.bw_inst_read::cpu1.inst      291195865                       # Instruction read bandwidth from this memory (bytes/s)
system.physmem.bw_inst_read::cpu2.inst      292297050                       # Instruction read bandwidth from this memory (bytes/s)
system.physmem.bw_inst_read::cpu3.inst      292279792                       # Instruction read bandwidth from this memory (bytes/s)
system.physmem.bw_inst_read::cpu4.inst      292184868                       # Instruction read bandwidth from this memory (bytes/s)
system.physmem.bw_inst_read::cpu5.inst      292521039                       # Instruction read bandwidth from this memory (bytes/s)
system.physmem.bw_inst_read::cpu6.inst      292262533                       # Instruction read bandwidth from this memory (bytes/s)
system.physmem.bw_inst_read::cpu7.inst      195189741                       # Instruction read bandwidth from this memory (bytes/s)
system.physmem.bw_inst_read::total         2729293908                       # Instruction read bandwidth from this memory (bytes/s)
system.physmem.bw_write::writebacks         159469306                       # Write bandwidth from this memory (bytes/s)
system.physmem.bw_write::total              159469306                       # Write bandwidth from this memory (bytes/s)
system.physmem.bw_total::writebacks         159469306                       # Total bandwidth to/from this memory (bytes/s)
system.physmem.bw_total::cpu0.inst          781363020                       # Total bandwidth to/from this memory (bytes/s)
system.physmem.bw_total::cpu0.data          198271560                       # Total bandwidth to/from this memory (bytes/s)
system.physmem.bw_total::cpu1.inst          291195865                       # Total bandwidth to/from this memory (bytes/s)
system.physmem.bw_total::cpu1.data           53481976                       # Total bandwidth to/from this memory (bytes/s)
system.physmem.bw_total::cpu2.inst          292297050                       # Total bandwidth to/from this memory (bytes/s)
system.physmem.bw_total::cpu2.data           53367918                       # Total bandwidth to/from this memory (bytes/s)
system.physmem.bw_total::cpu3.inst          292279792                       # Total bandwidth to/from this memory (bytes/s)
system.physmem.bw_total::cpu3.data           53727726                       # Total bandwidth to/from this memory (bytes/s)
system.physmem.bw_total::cpu4.inst          292184868                       # Total bandwidth to/from this memory (bytes/s)
system.physmem.bw_total::cpu4.data           53911570                       # Total bandwidth to/from this memory (bytes/s)
system.physmem.bw_total::cpu5.inst          292521039                       # Total bandwidth to/from this memory (bytes/s)
system.physmem.bw_total::cpu5.data           53648561                       # Total bandwidth to/from this memory (bytes/s)
system.physmem.bw_total::cpu6.inst          292262533                       # Total bandwidth to/from this memory (bytes/s)
system.physmem.bw_total::cpu6.data           53521371                       # Total bandwidth to/from this memory (bytes/s)
system.physmem.bw_total::cpu7.inst          195189741                       # Total bandwidth to/from this memory (bytes/s)
system.physmem.bw_total::cpu7.data           35658153                       # Total bandwidth to/from this memory (bytes/s)
system.physmem.bw_total::total             3444352049                       # Total bandwidth to/from this memory (bytes/s)
system.pwrStateResidencyTicks::UNDEFINED 170579785000                       # Cumulative time (in ticks) in various power states
system.cpu0.branchPred.lookups               17502504                       # Number of BP lookups
system.cpu0.branchPred.condPredicted         10635902                       # Number of conditional branches predicted
system.cpu0.branchPred.condIncorrect           437159                       # Number of conditional branches incorrect
system.cpu0.branchPred.BTBLookups             9535276                       # Number of BTB lookups
system.cpu0.branchPred.BTBHits                8290990                       # Number of BTB hits
system.cpu0.branchPred.BTBCorrect                   0                       # Number of correct BTB predictions (this stat may not work properly.
system.cpu0.branchPred.BTBHitPct            86.950708                       # BTB Hit Percentage
system.cpu0.branchPred.usedRAS                2183069                       # Number of times the RAS was used to get a target.
system.cpu0.branchPred.RASInCorrect             41305                       # Number of incorrect RAS predictions.
system.cpu0.branchPred.indirectLookups         560200                       # Number of indirect predictor lookups.
system.cpu0.branchPred.indirectHits            557527                       # Number of indirect target hits.
system.cpu0.branchPred.indirectMisses            2673                       # Number of indirect misses.
system.cpu0.branchPredindirectMispredicted         9941                       # Number of mispredicted indirect branches.
system.cpu0.dstage2_mmu.stage2_tlb.walker.pwrStateResidencyTicks::UNDEFINED 170579785000                       # Cumulative time (in ticks) in various power states
system.cpu0.dstage2_mmu.stage2_tlb.walker.walks            0                       # Table walker walks requested
system.cpu0.dstage2_mmu.stage2_tlb.walker.walkRequestOrigin_Requested::Data            0                       # Table walker requests started/completed, data/inst
system.cpu0.dstage2_mmu.stage2_tlb.walker.walkRequestOrigin_Requested::Inst            0                       # Table walker requests started/completed, data/inst
system.cpu0.dstage2_mmu.stage2_tlb.walker.walkRequestOrigin_Requested::total            0                       # Table walker requests started/completed, data/inst
system.cpu0.dstage2_mmu.stage2_tlb.walker.walkRequestOrigin_Completed::Data            0                       # Table walker requests started/completed, data/inst
system.cpu0.dstage2_mmu.stage2_tlb.walker.walkRequestOrigin_Completed::Inst            0                       # Table walker requests started/completed, data/inst
system.cpu0.dstage2_mmu.stage2_tlb.walker.walkRequestOrigin_Completed::total            0                       # Table walker requests started/completed, data/inst
system.cpu0.dstage2_mmu.stage2_tlb.walker.walkRequestOrigin::total            0                       # Table walker requests started/completed, data/inst
system.cpu0.dstage2_mmu.stage2_tlb.inst_hits            0                       # ITB inst hits
system.cpu0.dstage2_mmu.stage2_tlb.inst_misses            0                       # ITB inst misses
system.cpu0.dstage2_mmu.stage2_tlb.read_hits            0                       # DTB read hits
system.cpu0.dstage2_mmu.stage2_tlb.read_misses            0                       # DTB read misses
system.cpu0.dstage2_mmu.stage2_tlb.write_hits            0                       # DTB write hits
system.cpu0.dstage2_mmu.stage2_tlb.write_misses            0                       # DTB write misses
system.cpu0.dstage2_mmu.stage2_tlb.flush_tlb            0                       # Number of times complete TLB was flushed
system.cpu0.dstage2_mmu.stage2_tlb.flush_tlb_mva            0                       # Number of times TLB was flushed by MVA
system.cpu0.dstage2_mmu.stage2_tlb.flush_tlb_mva_asid            0                       # Number of times TLB was flushed by MVA & ASID
system.cpu0.dstage2_mmu.stage2_tlb.flush_tlb_asid            0                       # Number of times TLB was flushed by ASID
system.cpu0.dstage2_mmu.stage2_tlb.flush_entries            0                       # Number of entries that have been flushed from TLB
system.cpu0.dstage2_mmu.stage2_tlb.align_faults            0                       # Number of TLB faults due to alignment restrictions
system.cpu0.dstage2_mmu.stage2_tlb.prefetch_faults            0                       # Number of TLB faults due to prefetch
system.cpu0.dstage2_mmu.stage2_tlb.domain_faults            0                       # Number of TLB faults due to domain restrictions
system.cpu0.dstage2_mmu.stage2_tlb.perms_faults            0                       # Number of TLB faults due to permissions restrictions
system.cpu0.dstage2_mmu.stage2_tlb.read_accesses            0                       # DTB read accesses
system.cpu0.dstage2_mmu.stage2_tlb.write_accesses            0                       # DTB write accesses
system.cpu0.dstage2_mmu.stage2_tlb.inst_accesses            0                       # ITB inst accesses
system.cpu0.dstage2_mmu.stage2_tlb.hits             0                       # DTB hits
system.cpu0.dstage2_mmu.stage2_tlb.misses            0                       # DTB misses
system.cpu0.dstage2_mmu.stage2_tlb.accesses            0                       # DTB accesses
system.cpu0.dtb.walker.pwrStateResidencyTicks::UNDEFINED 170579785000                       # Cumulative time (in ticks) in various power states
system.cpu0.dtb.walker.walks                        0                       # Table walker walks requested
system.cpu0.dtb.walker.walkRequestOrigin_Requested::Data            0                       # Table walker requests started/completed, data/inst
system.cpu0.dtb.walker.walkRequestOrigin_Requested::Inst            0                       # Table walker requests started/completed, data/inst
system.cpu0.dtb.walker.walkRequestOrigin_Requested::total            0                       # Table walker requests started/completed, data/inst
system.cpu0.dtb.walker.walkRequestOrigin_Completed::Data            0                       # Table walker requests started/completed, data/inst
system.cpu0.dtb.walker.walkRequestOrigin_Completed::Inst            0                       # Table walker requests started/completed, data/inst
system.cpu0.dtb.walker.walkRequestOrigin_Completed::total            0                       # Table walker requests started/completed, data/inst
system.cpu0.dtb.walker.walkRequestOrigin::total            0                       # Table walker requests started/completed, data/inst
system.cpu0.dtb.inst_hits                           0                       # ITB inst hits
system.cpu0.dtb.inst_misses                         0                       # ITB inst misses
system.cpu0.dtb.read_hits                           0                       # DTB read hits
system.cpu0.dtb.read_misses                         0                       # DTB read misses
system.cpu0.dtb.write_hits                          0                       # DTB write hits
system.cpu0.dtb.write_misses                        0                       # DTB write misses
system.cpu0.dtb.flush_tlb                           0                       # Number of times complete TLB was flushed
system.cpu0.dtb.flush_tlb_mva                       0                       # Number of times TLB was flushed by MVA
system.cpu0.dtb.flush_tlb_mva_asid                  0                       # Number of times TLB was flushed by MVA & ASID
system.cpu0.dtb.flush_tlb_asid                      0                       # Number of times TLB was flushed by ASID
system.cpu0.dtb.flush_entries                       0                       # Number of entries that have been flushed from TLB
system.cpu0.dtb.align_faults                        0                       # Number of TLB faults due to alignment restrictions
system.cpu0.dtb.prefetch_faults                     0                       # Number of TLB faults due to prefetch
system.cpu0.dtb.domain_faults                       0                       # Number of TLB faults due to domain restrictions
system.cpu0.dtb.perms_faults                        0                       # Number of TLB faults due to permissions restrictions
system.cpu0.dtb.read_accesses                       0                       # DTB read accesses
system.cpu0.dtb.write_accesses                      0                       # DTB write accesses
system.cpu0.dtb.inst_accesses                       0                       # ITB inst accesses
system.cpu0.dtb.hits                                0                       # DTB hits
system.cpu0.dtb.misses                              0                       # DTB misses
system.cpu0.dtb.accesses                            0                       # DTB accesses
system.cpu0.istage2_mmu.stage2_tlb.walker.pwrStateResidencyTicks::UNDEFINED 170579785000                       # Cumulative time (in ticks) in various power states
system.cpu0.istage2_mmu.stage2_tlb.walker.walks            0                       # Table walker walks requested
system.cpu0.istage2_mmu.stage2_tlb.walker.walkRequestOrigin_Requested::Data            0                       # Table walker requests started/completed, data/inst
system.cpu0.istage2_mmu.stage2_tlb.walker.walkRequestOrigin_Requested::Inst            0                       # Table walker requests started/completed, data/inst
system.cpu0.istage2_mmu.stage2_tlb.walker.walkRequestOrigin_Requested::total            0                       # Table walker requests started/completed, data/inst
system.cpu0.istage2_mmu.stage2_tlb.walker.walkRequestOrigin_Completed::Data            0                       # Table walker requests started/completed, data/inst
system.cpu0.istage2_mmu.stage2_tlb.walker.walkRequestOrigin_Completed::Inst            0                       # Table walker requests started/completed, data/inst
system.cpu0.istage2_mmu.stage2_tlb.walker.walkRequestOrigin_Completed::total            0                       # Table walker requests started/completed, data/inst
system.cpu0.istage2_mmu.stage2_tlb.walker.walkRequestOrigin::total            0                       # Table walker requests started/completed, data/inst
system.cpu0.istage2_mmu.stage2_tlb.inst_hits            0                       # ITB inst hits
system.cpu0.istage2_mmu.stage2_tlb.inst_misses            0                       # ITB inst misses
system.cpu0.istage2_mmu.stage2_tlb.read_hits            0                       # DTB read hits
system.cpu0.istage2_mmu.stage2_tlb.read_misses            0                       # DTB read misses
system.cpu0.istage2_mmu.stage2_tlb.write_hits            0                       # DTB write hits
system.cpu0.istage2_mmu.stage2_tlb.write_misses            0                       # DTB write misses
system.cpu0.istage2_mmu.stage2_tlb.flush_tlb            0                       # Number of times complete TLB was flushed
system.cpu0.istage2_mmu.stage2_tlb.flush_tlb_mva            0                       # Number of times TLB was flushed by MVA
system.cpu0.istage2_mmu.stage2_tlb.flush_tlb_mva_asid            0                       # Number of times TLB was flushed by MVA & ASID
system.cpu0.istage2_mmu.stage2_tlb.flush_tlb_asid            0                       # Number of times TLB was flushed by ASID
system.cpu0.istage2_mmu.stage2_tlb.flush_entries            0                       # Number of entries that have been flushed from TLB
system.cpu0.istage2_mmu.stage2_tlb.align_faults            0                       # Number of TLB faults due to alignment restrictions
system.cpu0.istage2_mmu.stage2_tlb.prefetch_faults            0                       # Number of TLB faults due to prefetch
system.cpu0.istage2_mmu.stage2_tlb.domain_faults            0                       # Number of TLB faults due to domain restrictions
system.cpu0.istage2_mmu.stage2_tlb.perms_faults            0                       # Number of TLB faults due to permissions restrictions
system.cpu0.istage2_mmu.stage2_tlb.read_accesses            0                       # DTB read accesses
system.cpu0.istage2_mmu.stage2_tlb.write_accesses            0                       # DTB write accesses
system.cpu0.istage2_mmu.stage2_tlb.inst_accesses            0                       # ITB inst accesses
system.cpu0.istage2_mmu.stage2_tlb.hits             0                       # DTB hits
system.cpu0.istage2_mmu.stage2_tlb.misses            0                       # DTB misses
system.cpu0.istage2_mmu.stage2_tlb.accesses            0                       # DTB accesses
system.cpu0.itb.walker.pwrStateResidencyTicks::UNDEFINED 170579785000                       # Cumulative time (in ticks) in various power states
system.cpu0.itb.walker.walks                        0                       # Table walker walks requested
system.cpu0.itb.walker.walkRequestOrigin_Requested::Data            0                       # Table walker requests started/completed, data/inst
system.cpu0.itb.walker.walkRequestOrigin_Requested::Inst            0                       # Table walker requests started/completed, data/inst
system.cpu0.itb.walker.walkRequestOrigin_Requested::total            0                       # Table walker requests started/completed, data/inst
system.cpu0.itb.walker.walkRequestOrigin_Completed::Data            0                       # Table walker requests started/completed, data/inst
system.cpu0.itb.walker.walkRequestOrigin_Completed::Inst            0                       # Table walker requests started/completed, data/inst
system.cpu0.itb.walker.walkRequestOrigin_Completed::total            0                       # Table walker requests started/completed, data/inst
system.cpu0.itb.walker.walkRequestOrigin::total            0                       # Table walker requests started/completed, data/inst
system.cpu0.itb.inst_hits                           0                       # ITB inst hits
system.cpu0.itb.inst_misses                         0                       # ITB inst misses
system.cpu0.itb.read_hits                           0                       # DTB read hits
system.cpu0.itb.read_misses                         0                       # DTB read misses
system.cpu0.itb.write_hits                          0                       # DTB write hits
system.cpu0.itb.write_misses                        0                       # DTB write misses
system.cpu0.itb.flush_tlb                           0                       # Number of times complete TLB was flushed
system.cpu0.itb.flush_tlb_mva                       0                       # Number of times TLB was flushed by MVA
system.cpu0.itb.flush_tlb_mva_asid                  0                       # Number of times TLB was flushed by MVA & ASID
system.cpu0.itb.flush_tlb_asid                      0                       # Number of times TLB was flushed by ASID
system.cpu0.itb.flush_entries                       0                       # Number of entries that have been flushed from TLB
system.cpu0.itb.align_faults                        0                       # Number of TLB faults due to alignment restrictions
system.cpu0.itb.prefetch_faults                     0                       # Number of TLB faults due to prefetch
system.cpu0.itb.domain_faults                       0                       # Number of TLB faults due to domain restrictions
system.cpu0.itb.perms_faults                        0                       # Number of TLB faults due to permissions restrictions
system.cpu0.itb.read_accesses                       0                       # DTB read accesses
system.cpu0.itb.write_accesses                      0                       # DTB write accesses
system.cpu0.itb.inst_accesses                       0                       # ITB inst accesses
system.cpu0.itb.hits                                0                       # DTB hits
system.cpu0.itb.misses                              0                       # DTB misses
system.cpu0.itb.accesses                            0                       # DTB accesses
system.cpu0.workload.num_syscalls              256834                       # Number of system calls
system.cpu0.pwrStateResidencyTicks::ON   170579785000                       # Cumulative time (in ticks) in various power states
system.cpu0.numCycles                       170579936                       # number of cpu cycles simulated
system.cpu0.numWorkItemsStarted                     0                       # number of work items this cpu started
system.cpu0.numWorkItemsCompleted                   0                       # number of work items this cpu completed
system.cpu0.fetch.icacheStallCycles          61466140                       # Number of cycles fetch is stalled on an Icache miss
system.cpu0.fetch.Insts                      98118444                       # Number of instructions fetch has processed
system.cpu0.fetch.Branches                   17502504                       # Number of branches that fetch encountered
system.cpu0.fetch.predictedBranches          11031586                       # Number of branches that fetch has predicted taken
system.cpu0.fetch.Cycles                     65012482                       # Number of cycles fetch has run and was not squashing or blocked
system.cpu0.fetch.SquashCycles                 883215                       # Number of cycles fetch has spent squashing
system.cpu0.fetch.MiscStallCycles                1813                       # Number of cycles fetch has spent waiting on interrupts, or bad addresses, or out of MSHRs
system.cpu0.fetch.PendingTrapStallCycles         3920                       # Number of stall cycles due to pending traps
system.cpu0.fetch.IcacheWaitRetryStallCycles        34390                       # Number of stall cycles due to full MSHR
system.cpu0.fetch.CacheLines                 13687675                       # Number of cache lines fetched
system.cpu0.fetch.IcacheSquashes               216363                       # Number of outstanding Icache misses that were squashed
system.cpu0.fetch.rateDist::samples         126960352                       # Number of instructions fetched each cycle (Total)
system.cpu0.fetch.rateDist::mean             0.872148                       # Number of instructions fetched each cycle (Total)
system.cpu0.fetch.rateDist::stdev            0.954313                       # Number of instructions fetched each cycle (Total)
system.cpu0.fetch.rateDist::underflows              0      0.00%      0.00% # Number of instructions fetched each cycle (Total)
system.cpu0.fetch.rateDist::0                66965961     52.75%     52.75% # Number of instructions fetched each cycle (Total)
system.cpu0.fetch.rateDist::1                 9260622      7.29%     60.04% # Number of instructions fetched each cycle (Total)
system.cpu0.fetch.rateDist::2                50733769     39.96%    100.00% # Number of instructions fetched each cycle (Total)
system.cpu0.fetch.rateDist::overflows               0      0.00%    100.00% # Number of instructions fetched each cycle (Total)
system.cpu0.fetch.rateDist::min_value               0                       # Number of instructions fetched each cycle (Total)
system.cpu0.fetch.rateDist::max_value               2                       # Number of instructions fetched each cycle (Total)
system.cpu0.fetch.rateDist::total           126960352                       # Number of instructions fetched each cycle (Total)
system.cpu0.fetch.branchRate                 0.102606                       # Number of branch fetches per cycle
system.cpu0.fetch.rate                       0.575205                       # Number of inst fetches per cycle
system.cpu0.decode.IdleCycles                58375337                       # Number of cycles decode is idle
system.cpu0.decode.BlockedCycles             11472132                       # Number of cycles decode is blocked
system.cpu0.decode.RunCycles                 46444739                       # Number of cycles decode is running
system.cpu0.decode.UnblockCycles             10261159                       # Number of cycles decode is unblocking
system.cpu0.decode.SquashCycles                406985                       # Number of cycles decode is squashing
system.cpu0.decode.BranchResolved             4761977                       # Number of times decode resolved a branch
system.cpu0.decode.BranchMispred                34812                       # Number of times decode detected a branch misprediction
system.cpu0.decode.DecodedInsts             109526220                       # Number of instructions handled by decode
system.cpu0.decode.SquashedInsts                61589                       # Number of squashed instructions handled by decode
system.cpu0.rename.SquashCycles                406985                       # Number of cycles rename is squashing
system.cpu0.rename.IdleCycles                60649868                       # Number of cycles rename is idle
system.cpu0.rename.BlockCycles                1897743                       # Number of cycles rename is blocking
system.cpu0.rename.serializeStallCycles       1034334                       # count of cycles rename stalled for serializing inst
system.cpu0.rename.RunCycles                 54364294                       # Number of cycles rename is running
system.cpu0.rename.UnblockCycles              8607128                       # Number of cycles rename is unblocking
system.cpu0.rename.RenamedInsts             109127161                       # Number of instructions processed by rename
system.cpu0.rename.IQFullEvents               6421685                       # Number of times rename has blocked due to IQ full
system.cpu0.rename.LQFullEvents                 90057                       # Number of times rename has blocked due to LQ full
system.cpu0.rename.SQFullEvents                 26859                       # Number of times rename has blocked due to SQ full
system.cpu0.rename.RenamedOperands          136409147                       # Number of destination operands rename has renamed
system.cpu0.rename.RenameLookups            503443402                       # Number of register rename lookups that rename has made
system.cpu0.rename.int_rename_lookups       138732013                       # Number of integer rename lookups
system.cpu0.rename.fp_rename_lookups               16                       # Number of floating rename lookups
system.cpu0.rename.CommittedMaps            123960098                       # Number of HB maps that are committed
system.cpu0.rename.UndoneMaps                12449049                       # Number of HB maps that are undone due to squashing
system.cpu0.rename.serializingInsts             22320                       # count of serializing insts renamed
system.cpu0.rename.tempSerializingInsts         10999                       # count of temporary serializing insts renamed
system.cpu0.rename.skidInsts                  9258060                       # count of insts added to the skid buffer
system.cpu0.memDep0.insertedLoads            14309198                       # Number of loads inserted to the mem dependence unit.
system.cpu0.memDep0.insertedStores            8954057                       # Number of stores inserted to the mem dependence unit.
system.cpu0.memDep0.conflictingLoads          4616523                       # Number of conflicting loads.
system.cpu0.memDep0.conflictingStores         1902173                       # Number of conflicting stores.
system.cpu0.iq.iqInstsAdded                 108311684                       # Number of instructions added to the IQ (excludes non-spec)
system.cpu0.iq.iqNonSpecInstsAdded              20543                       # Number of non-speculative instructions added to the IQ
system.cpu0.iq.iqInstsIssued                101984919                       # Number of instructions issued
system.cpu0.iq.iqSquashedInstsIssued           999493                       # Number of squashed instructions issued
system.cpu0.iq.iqSquashedInstsExamined        7821964                       # Number of squashed instructions iterated over during squash; mainly for profiling
system.cpu0.iq.iqSquashedOperandsExamined     29545363                       # Number of squashed operands that are examined and possibly removed from graph
system.cpu0.iq.iqSquashedNonSpecRemoved           933                       # Number of squashed non-spec instructions that were removed
system.cpu0.iq.issued_per_cycle::samples    126960352                       # Number of insts issued each cycle
system.cpu0.iq.issued_per_cycle::mean        0.803282                       # Number of insts issued each cycle
system.cpu0.iq.issued_per_cycle::stdev       0.689622                       # Number of insts issued each cycle
system.cpu0.iq.issued_per_cycle::underflows            0      0.00%      0.00% # Number of insts issued each cycle
system.cpu0.iq.issued_per_cycle::0           45134067     35.55%     35.55% # Number of insts issued each cycle
system.cpu0.iq.issued_per_cycle::1           61667651     48.57%     84.12% # Number of insts issued each cycle
system.cpu0.iq.issued_per_cycle::2           20158634     15.88%    100.00% # Number of insts issued each cycle
system.cpu0.iq.issued_per_cycle::overflows            0      0.00%    100.00% # Number of insts issued each cycle
system.cpu0.iq.issued_per_cycle::min_value            0                       # Number of insts issued each cycle
system.cpu0.iq.issued_per_cycle::max_value            2                       # Number of insts issued each cycle
system.cpu0.iq.issued_per_cycle::total      126960352                       # Number of insts issued each cycle
system.cpu0.iq.fu_full::No_OpClass                  0      0.00%      0.00% # attempts to use FU when none available
system.cpu0.iq.fu_full::IntAlu               56145457     93.00%     93.00% # attempts to use FU when none available
system.cpu0.iq.fu_full::IntMult                     0      0.00%     93.00% # attempts to use FU when none available
system.cpu0.iq.fu_full::IntDiv                      0      0.00%     93.00% # attempts to use FU when none available
system.cpu0.iq.fu_full::FloatAdd                    0      0.00%     93.00% # attempts to use FU when none available
system.cpu0.iq.fu_full::FloatCmp                    0      0.00%     93.00% # attempts to use FU when none available
system.cpu0.iq.fu_full::FloatCvt                    0      0.00%     93.00% # attempts to use FU when none available
system.cpu0.iq.fu_full::FloatMult                   0      0.00%     93.00% # attempts to use FU when none available
system.cpu0.iq.fu_full::FloatMultAcc                0      0.00%     93.00% # attempts to use FU when none available
system.cpu0.iq.fu_full::FloatDiv                    0      0.00%     93.00% # attempts to use FU when none available
system.cpu0.iq.fu_full::FloatMisc                   0      0.00%     93.00% # attempts to use FU when none available
system.cpu0.iq.fu_full::FloatSqrt                   0      0.00%     93.00% # attempts to use FU when none available
system.cpu0.iq.fu_full::SimdAdd                     0      0.00%     93.00% # attempts to use FU when none available
system.cpu0.iq.fu_full::SimdAddAcc                  0      0.00%     93.00% # attempts to use FU when none available
system.cpu0.iq.fu_full::SimdAlu                     0      0.00%     93.00% # attempts to use FU when none available
system.cpu0.iq.fu_full::SimdCmp                     0      0.00%     93.00% # attempts to use FU when none available
system.cpu0.iq.fu_full::SimdCvt                     0      0.00%     93.00% # attempts to use FU when none available
system.cpu0.iq.fu_full::SimdMisc                    0      0.00%     93.00% # attempts to use FU when none available
system.cpu0.iq.fu_full::SimdMult                    0      0.00%     93.00% # attempts to use FU when none available
system.cpu0.iq.fu_full::SimdMultAcc                 0      0.00%     93.00% # attempts to use FU when none available
system.cpu0.iq.fu_full::SimdShift                   0      0.00%     93.00% # attempts to use FU when none available
system.cpu0.iq.fu_full::SimdShiftAcc                0      0.00%     93.00% # attempts to use FU when none available
system.cpu0.iq.fu_full::SimdSqrt                    0      0.00%     93.00% # attempts to use FU when none available
system.cpu0.iq.fu_full::SimdFloatAdd                0      0.00%     93.00% # attempts to use FU when none available
system.cpu0.iq.fu_full::SimdFloatAlu                0      0.00%     93.00% # attempts to use FU when none available
system.cpu0.iq.fu_full::SimdFloatCmp                0      0.00%     93.00% # attempts to use FU when none available
system.cpu0.iq.fu_full::SimdFloatCvt                0      0.00%     93.00% # attempts to use FU when none available
system.cpu0.iq.fu_full::SimdFloatDiv                0      0.00%     93.00% # attempts to use FU when none available
system.cpu0.iq.fu_full::SimdFloatMisc               0      0.00%     93.00% # attempts to use FU when none available
system.cpu0.iq.fu_full::SimdFloatMult               0      0.00%     93.00% # attempts to use FU when none available
system.cpu0.iq.fu_full::SimdFloatMultAcc            0      0.00%     93.00% # attempts to use FU when none available
system.cpu0.iq.fu_full::SimdFloatSqrt               0      0.00%     93.00% # attempts to use FU when none available
system.cpu0.iq.fu_full::MemRead               2572168      4.26%     97.26% # attempts to use FU when none available
system.cpu0.iq.fu_full::MemWrite              1652478      2.74%    100.00% # attempts to use FU when none available
system.cpu0.iq.fu_full::FloatMemRead                0      0.00%    100.00% # attempts to use FU when none available
system.cpu0.iq.fu_full::FloatMemWrite               0      0.00%    100.00% # attempts to use FU when none available
system.cpu0.iq.fu_full::IprAccess                   0      0.00%    100.00% # attempts to use FU when none available
system.cpu0.iq.fu_full::InstPrefetch                0      0.00%    100.00% # attempts to use FU when none available
system.cpu0.iq.FU_type_0::No_OpClass                0      0.00%      0.00% # Type of FU issued
system.cpu0.iq.FU_type_0::IntAlu             78676147     77.14%     77.14% # Type of FU issued
system.cpu0.iq.FU_type_0::IntMult              521594      0.51%     77.66% # Type of FU issued
system.cpu0.iq.FU_type_0::IntDiv                    0      0.00%     77.66% # Type of FU issued
system.cpu0.iq.FU_type_0::FloatAdd                  0      0.00%     77.66% # Type of FU issued
system.cpu0.iq.FU_type_0::FloatCmp                  0      0.00%     77.66% # Type of FU issued
system.cpu0.iq.FU_type_0::FloatCvt                  0      0.00%     77.66% # Type of FU issued
system.cpu0.iq.FU_type_0::FloatMult                 0      0.00%     77.66% # Type of FU issued
system.cpu0.iq.FU_type_0::FloatMultAcc              0      0.00%     77.66% # Type of FU issued
system.cpu0.iq.FU_type_0::FloatDiv                  0      0.00%     77.66% # Type of FU issued
system.cpu0.iq.FU_type_0::FloatMisc                 0      0.00%     77.66% # Type of FU issued
system.cpu0.iq.FU_type_0::FloatSqrt                 0      0.00%     77.66% # Type of FU issued
system.cpu0.iq.FU_type_0::SimdAdd                   0      0.00%     77.66% # Type of FU issued
system.cpu0.iq.FU_type_0::SimdAddAcc                0      0.00%     77.66% # Type of FU issued
system.cpu0.iq.FU_type_0::SimdAlu                   0      0.00%     77.66% # Type of FU issued
system.cpu0.iq.FU_type_0::SimdCmp                   0      0.00%     77.66% # Type of FU issued
system.cpu0.iq.FU_type_0::SimdCvt                   0      0.00%     77.66% # Type of FU issued
system.cpu0.iq.FU_type_0::SimdMisc                  0      0.00%     77.66% # Type of FU issued
system.cpu0.iq.FU_type_0::SimdMult                  0      0.00%     77.66% # Type of FU issued
system.cpu0.iq.FU_type_0::SimdMultAcc               0      0.00%     77.66% # Type of FU issued
system.cpu0.iq.FU_type_0::SimdShift                 0      0.00%     77.66% # Type of FU issued
system.cpu0.iq.FU_type_0::SimdShiftAcc              0      0.00%     77.66% # Type of FU issued
system.cpu0.iq.FU_type_0::SimdSqrt                  0      0.00%     77.66% # Type of FU issued
system.cpu0.iq.FU_type_0::SimdFloatAdd              0      0.00%     77.66% # Type of FU issued
system.cpu0.iq.FU_type_0::SimdFloatAlu              0      0.00%     77.66% # Type of FU issued
system.cpu0.iq.FU_type_0::SimdFloatCmp              0      0.00%     77.66% # Type of FU issued
system.cpu0.iq.FU_type_0::SimdFloatCvt              0      0.00%     77.66% # Type of FU issued
system.cpu0.iq.FU_type_0::SimdFloatDiv              0      0.00%     77.66% # Type of FU issued
system.cpu0.iq.FU_type_0::SimdFloatMisc         11308      0.01%     77.67% # Type of FU issued
system.cpu0.iq.FU_type_0::SimdFloatMult             0      0.00%     77.67% # Type of FU issued
system.cpu0.iq.FU_type_0::SimdFloatMultAcc            0      0.00%     77.67% # Type of FU issued
system.cpu0.iq.FU_type_0::SimdFloatSqrt             0      0.00%     77.67% # Type of FU issued
system.cpu0.iq.FU_type_0::MemRead            14016715     13.74%     91.41% # Type of FU issued
system.cpu0.iq.FU_type_0::MemWrite            8759139      8.59%    100.00% # Type of FU issued
system.cpu0.iq.FU_type_0::FloatMemRead              0      0.00%    100.00% # Type of FU issued
system.cpu0.iq.FU_type_0::FloatMemWrite            16      0.00%    100.00% # Type of FU issued
system.cpu0.iq.FU_type_0::IprAccess                 0      0.00%    100.00% # Type of FU issued
system.cpu0.iq.FU_type_0::InstPrefetch              0      0.00%    100.00% # Type of FU issued
system.cpu0.iq.FU_type_0::total             101984919                       # Type of FU issued
system.cpu0.iq.rate                          0.597872                       # Inst issue rate
system.cpu0.iq.fu_busy_cnt                   60370103                       # FU busy when requested
system.cpu0.iq.fu_busy_rate                  0.591951                       # FU busy rate (busy events/executed inst)
system.cpu0.iq.int_inst_queue_reads         392299754                       # Number of integer instruction queue reads
system.cpu0.iq.int_inst_queue_writes        116155839                       # Number of integer instruction queue writes
system.cpu0.iq.int_inst_queue_wakeup_accesses    101673543                       # Number of integer instruction queue wakeup accesses
system.cpu0.iq.fp_inst_queue_reads                 32                       # Number of floating instruction queue reads
system.cpu0.iq.fp_inst_queue_writes                16                       # Number of floating instruction queue writes
system.cpu0.iq.fp_inst_queue_wakeup_accesses           16                       # Number of floating instruction queue wakeup accesses
system.cpu0.iq.int_alu_accesses             162355006                       # Number of integer alu accesses
system.cpu0.iq.fp_alu_accesses                     16                       # Number of floating point alu accesses
system.cpu0.iew.lsq.thread0.forwLoads         1863340                       # Number of loads that had data forwarded from stores
system.cpu0.iew.lsq.thread0.invAddrLoads            0                       # Number of loads ignored due to an invalid address
system.cpu0.iew.lsq.thread0.squashedLoads       727427                       # Number of loads squashed
system.cpu0.iew.lsq.thread0.ignoredResponses          341                       # Number of memory responses ignored because the instruction is squashed
system.cpu0.iew.lsq.thread0.memOrderViolation         1873                       # Number of memory ordering violations
system.cpu0.iew.lsq.thread0.squashedStores       293499                       # Number of stores squashed
system.cpu0.iew.lsq.thread0.invAddrSwpfs            0                       # Number of software prefetches ignored due to an invalid address
system.cpu0.iew.lsq.thread0.blockedLoads            0                       # Number of blocked loads due to partial load-store forwarding
system.cpu0.iew.lsq.thread0.rescheduledLoads        75293                       # Number of loads that were rescheduled
system.cpu0.iew.lsq.thread0.cacheBlocked        21314                       # Number of times an access to memory failed due to the cache being blocked
system.cpu0.iew.iewIdleCycles                       0                       # Number of cycles IEW is idle
system.cpu0.iew.iewSquashCycles                406985                       # Number of cycles IEW is squashing
system.cpu0.iew.iewBlockCycles                1711202                       # Number of cycles IEW is blocking
system.cpu0.iew.iewUnblockCycles               153165                       # Number of cycles IEW is unblocking
system.cpu0.iew.iewDispatchedInsts          108332497                       # Number of instructions dispatched to IQ
system.cpu0.iew.iewDispSquashedInsts            85577                       # Number of squashed instructions skipped by dispatch
system.cpu0.iew.iewDispLoadInsts             14309198                       # Number of dispatched load instructions
system.cpu0.iew.iewDispStoreInsts             8954057                       # Number of dispatched store instructions
system.cpu0.iew.iewDispNonSpecInsts             10869                       # Number of dispatched non-speculative instructions
system.cpu0.iew.iewIQFullEvents                 13137                       # Number of times the IQ has become full, causing a stall
system.cpu0.iew.iewLSQFullEvents                75084                       # Number of times the LSQ has become full, causing a stall
system.cpu0.iew.memOrderViolationEvents          1873                       # Number of memory order violations
system.cpu0.iew.predictedTakenIncorrect        213077                       # Number of branches that were predicted taken incorrectly
system.cpu0.iew.predictedNotTakenIncorrect       209158                       # Number of branches that were predicted not taken incorrectly
system.cpu0.iew.branchMispredicts              422235                       # Number of branch mispredicts detected at execute
system.cpu0.iew.iewExecutedInsts            101831254                       # Number of executed instructions
system.cpu0.iew.iewExecLoadInsts             13981812                       # Number of load instructions executed
system.cpu0.iew.iewExecSquashedInsts           153665                       # Number of squashed instructions skipped in execute
system.cpu0.iew.exec_swp                            0                       # number of swp insts executed
system.cpu0.iew.exec_nop                          270                       # number of nop insts executed
system.cpu0.iew.exec_refs                    22724380                       # number of memory reference insts executed
system.cpu0.iew.exec_branches                15906089                       # Number of branches executed
system.cpu0.iew.exec_stores                   8742568                       # Number of stores executed
system.cpu0.iew.exec_rate                    0.596971                       # Inst execution rate
system.cpu0.iew.wb_sent                     101690067                       # cumulative count of insts sent to commit
system.cpu0.iew.wb_count                    101673559                       # cumulative count of insts written-back
system.cpu0.iew.wb_producers                 69779541                       # num instructions producing a value
system.cpu0.iew.wb_consumers                157466107                       # num instructions consuming a value
system.cpu0.iew.wb_rate                      0.596046                       # insts written-back per cycle
system.cpu0.iew.wb_fanout                    0.443140                       # average fanout of values written-back
system.cpu0.commit.commitSquashedInsts        7822550                       # The number of squashed insts skipped by commit
system.cpu0.commit.commitNonSpecStalls          19610                       # The number of times commit has been forced to stall to communicate backwards
system.cpu0.commit.branchMispredicts           402537                       # The number of times a branch was mispredicted
system.cpu0.commit.committed_per_cycle::samples    125778054                       # Number of insts commited each cycle
system.cpu0.commit.committed_per_cycle::mean     0.799108                       # Number of insts commited each cycle
system.cpu0.commit.committed_per_cycle::stdev     1.015774                       # Number of insts commited each cycle
system.cpu0.commit.committed_per_cycle::underflows            0      0.00%      0.00% # Number of insts commited each cycle
system.cpu0.commit.committed_per_cycle::0     51026121     40.57%     40.57% # Number of insts commited each cycle
system.cpu0.commit.committed_per_cycle::1     61593343     48.97%     89.54% # Number of insts commited each cycle
system.cpu0.commit.committed_per_cycle::2      7956794      6.33%     95.86% # Number of insts commited each cycle
system.cpu0.commit.committed_per_cycle::3      2467254      1.96%     97.83% # Number of insts commited each cycle
system.cpu0.commit.committed_per_cycle::4       937169      0.75%     98.57% # Number of insts commited each cycle
system.cpu0.commit.committed_per_cycle::5       229820      0.18%     98.75% # Number of insts commited each cycle
system.cpu0.commit.committed_per_cycle::6       477996      0.38%     99.13% # Number of insts commited each cycle
system.cpu0.commit.committed_per_cycle::7       880638      0.70%     99.83% # Number of insts commited each cycle
system.cpu0.commit.committed_per_cycle::8       208919      0.17%    100.00% # Number of insts commited each cycle
system.cpu0.commit.committed_per_cycle::overflows            0      0.00%    100.00% # Number of insts commited each cycle
system.cpu0.commit.committed_per_cycle::min_value            0                       # Number of insts commited each cycle
system.cpu0.commit.committed_per_cycle::max_value            8                       # Number of insts commited each cycle
system.cpu0.commit.committed_per_cycle::total    125778054                       # Number of insts commited each cycle
system.cpu0.commit.committedInsts            88938925                       # Number of instructions committed
system.cpu0.commit.committedOps             100510263                       # Number of ops (including micro ops) committed
system.cpu0.commit.swp_count                        0                       # Number of s/w prefetches committed
system.cpu0.commit.refs                      22242329                       # Number of memory references committed
system.cpu0.commit.loads                     13581771                       # Number of loads committed
system.cpu0.commit.membars                       9490                       # Number of memory barriers committed
system.cpu0.commit.branches                  15787471                       # Number of branches committed
system.cpu0.commit.fp_insts                        16                       # Number of committed floating point instructions.
system.cpu0.commit.int_insts                 90874841                       # Number of committed integer instructions.
system.cpu0.commit.function_calls             2565392                       # Number of function calls committed.
system.cpu0.commit.op_class_0::No_OpClass            0      0.00%      0.00% # Class of committed instruction
system.cpu0.commit.op_class_0::IntAlu        77751478     77.36%     77.36% # Class of committed instruction
system.cpu0.commit.op_class_0::IntMult         505148      0.50%     77.86% # Class of committed instruction
system.cpu0.commit.op_class_0::IntDiv               0      0.00%     77.86% # Class of committed instruction
system.cpu0.commit.op_class_0::FloatAdd             0      0.00%     77.86% # Class of committed instruction
system.cpu0.commit.op_class_0::FloatCmp             0      0.00%     77.86% # Class of committed instruction
system.cpu0.commit.op_class_0::FloatCvt             0      0.00%     77.86% # Class of committed instruction
system.cpu0.commit.op_class_0::FloatMult            0      0.00%     77.86% # Class of committed instruction
system.cpu0.commit.op_class_0::FloatMultAcc            0      0.00%     77.86% # Class of committed instruction
system.cpu0.commit.op_class_0::FloatDiv             0      0.00%     77.86% # Class of committed instruction
system.cpu0.commit.op_class_0::FloatMisc            0      0.00%     77.86% # Class of committed instruction
system.cpu0.commit.op_class_0::FloatSqrt            0      0.00%     77.86% # Class of committed instruction
system.cpu0.commit.op_class_0::SimdAdd              0      0.00%     77.86% # Class of committed instruction
system.cpu0.commit.op_class_0::SimdAddAcc            0      0.00%     77.86% # Class of committed instruction
system.cpu0.commit.op_class_0::SimdAlu              0      0.00%     77.86% # Class of committed instruction
system.cpu0.commit.op_class_0::SimdCmp              0      0.00%     77.86% # Class of committed instruction
system.cpu0.commit.op_class_0::SimdCvt              0      0.00%     77.86% # Class of committed instruction
system.cpu0.commit.op_class_0::SimdMisc             0      0.00%     77.86% # Class of committed instruction
system.cpu0.commit.op_class_0::SimdMult             0      0.00%     77.86% # Class of committed instruction
system.cpu0.commit.op_class_0::SimdMultAcc            0      0.00%     77.86% # Class of committed instruction
system.cpu0.commit.op_class_0::SimdShift            0      0.00%     77.86% # Class of committed instruction
system.cpu0.commit.op_class_0::SimdShiftAcc            0      0.00%     77.86% # Class of committed instruction
system.cpu0.commit.op_class_0::SimdSqrt             0      0.00%     77.86% # Class of committed instruction
system.cpu0.commit.op_class_0::SimdFloatAdd            0      0.00%     77.86% # Class of committed instruction
system.cpu0.commit.op_class_0::SimdFloatAlu            0      0.00%     77.86% # Class of committed instruction
system.cpu0.commit.op_class_0::SimdFloatCmp            0      0.00%     77.86% # Class of committed instruction
system.cpu0.commit.op_class_0::SimdFloatCvt            0      0.00%     77.86% # Class of committed instruction
system.cpu0.commit.op_class_0::SimdFloatDiv            0      0.00%     77.86% # Class of committed instruction
system.cpu0.commit.op_class_0::SimdFloatMisc        11308      0.01%     77.87% # Class of committed instruction
system.cpu0.commit.op_class_0::SimdFloatMult            0      0.00%     77.87% # Class of committed instruction
system.cpu0.commit.op_class_0::SimdFloatMultAcc            0      0.00%     77.87% # Class of committed instruction
system.cpu0.commit.op_class_0::SimdFloatSqrt            0      0.00%     77.87% # Class of committed instruction
system.cpu0.commit.op_class_0::MemRead       13581771     13.51%     91.38% # Class of committed instruction
system.cpu0.commit.op_class_0::MemWrite       8660542      8.62%    100.00% # Class of committed instruction
system.cpu0.commit.op_class_0::FloatMemRead            0      0.00%    100.00% # Class of committed instruction
system.cpu0.commit.op_class_0::FloatMemWrite           16      0.00%    100.00% # Class of committed instruction
system.cpu0.commit.op_class_0::IprAccess            0      0.00%    100.00% # Class of committed instruction
system.cpu0.commit.op_class_0::InstPrefetch            0      0.00%    100.00% # Class of committed instruction
system.cpu0.commit.op_class_0::total        100510263                       # Class of committed instruction
system.cpu0.commit.bw_lim_events               208919                       # number cycles where commit BW limit reached
system.cpu0.rob.rob_reads                   233863917                       # The number of ROB reads
system.cpu0.rob.rob_writes                  217848124                       # The number of ROB writes
system.cpu0.timesIdled                        1938951                       # Number of times that the entire CPU went into an idle state and unscheduled itself
system.cpu0.idleCycles                       43619584                       # Total number of cycles that the CPU has spent unscheduled due to idling
system.cpu0.committedInsts                   88938925                       # Number of Instructions Simulated
system.cpu0.committedOps                    100510263                       # Number of Ops (including micro ops) Simulated
system.cpu0.cpi                              1.917945                       # CPI: Cycles Per Instruction
system.cpu0.cpi_total                        1.917945                       # CPI: Total CPI of All Threads
system.cpu0.ipc                              0.521391                       # IPC: Instructions Per Cycle
system.cpu0.ipc_total                        0.521391                       # IPC: Total IPC of All Threads
system.cpu0.int_regfile_reads               119639930                       # number of integer regfile reads
system.cpu0.int_regfile_writes               70648865                       # number of integer regfile writes
system.cpu0.fp_regfile_reads                     1136                       # number of floating regfile reads
system.cpu0.cc_regfile_reads                350199753                       # number of cc regfile reads
system.cpu0.cc_regfile_writes                53063304                       # number of cc regfile writes
system.cpu0.misc_regfile_reads               22636600                       # number of misc regfile reads
system.cpu0.misc_regfile_writes                 17633                       # number of misc regfile writes
system.cpu0.dcache.tags.pwrStateResidencyTicks::UNDEFINED 170579785000                       # Cumulative time (in ticks) in various power states
system.cpu0.dcache.tags.replacements           529437                       # number of replacements
system.cpu0.dcache.tags.tagsinuse           15.993705                       # Cycle average of tags in use
system.cpu0.dcache.tags.total_refs           19243686                       # Total number of references to valid blocks.
system.cpu0.dcache.tags.sampled_refs           529453                       # Sample count of references to valid blocks.
system.cpu0.dcache.tags.avg_refs            36.346354                       # Average number of references to valid blocks.
system.cpu0.dcache.tags.warmup_cycle           574000                       # Cycle when the warmup percentage was hit.
system.cpu0.dcache.tags.occ_blocks::cpu0.data    15.993705                       # Average occupied blocks per requestor
system.cpu0.dcache.tags.occ_percent::cpu0.data     0.999607                       # Average percentage of cache occupancy
system.cpu0.dcache.tags.occ_percent::total     0.999607                       # Average percentage of cache occupancy
system.cpu0.dcache.tags.occ_task_id_blocks::1024           16                       # Occupied blocks per task id
system.cpu0.dcache.tags.age_task_id_blocks_1024::0           16                       # Occupied blocks per task id
system.cpu0.dcache.tags.occ_task_id_percent::1024            1                       # Percentage of cache occupancy per task id
system.cpu0.dcache.tags.tag_accesses        161240185                       # Number of tag accesses
system.cpu0.dcache.tags.data_accesses       161240185                       # Number of data accesses
system.cpu0.dcache.pwrStateResidencyTicks::UNDEFINED 170579785000                       # Cumulative time (in ticks) in various power states
system.cpu0.dcache.ReadReq_hits::cpu0.data     10987668                       # number of ReadReq hits
system.cpu0.dcache.ReadReq_hits::total       10987668                       # number of ReadReq hits
system.cpu0.dcache.WriteReq_hits::cpu0.data      8242588                       # number of WriteReq hits
system.cpu0.dcache.WriteReq_hits::total       8242588                       # number of WriteReq hits
system.cpu0.dcache.LoadLockedReq_hits::cpu0.data         5271                       # number of LoadLockedReq hits
system.cpu0.dcache.LoadLockedReq_hits::total         5271                       # number of LoadLockedReq hits
system.cpu0.dcache.StoreCondReq_hits::cpu0.data         4592                       # number of StoreCondReq hits
system.cpu0.dcache.StoreCondReq_hits::total         4592                       # number of StoreCondReq hits
system.cpu0.dcache.demand_hits::cpu0.data     19230256                       # number of demand (read+write) hits
system.cpu0.dcache.demand_hits::total        19230256                       # number of demand (read+write) hits
system.cpu0.dcache.overall_hits::cpu0.data     19230256                       # number of overall hits
system.cpu0.dcache.overall_hits::total       19230256                       # number of overall hits
system.cpu0.dcache.ReadReq_misses::cpu0.data       582279                       # number of ReadReq misses
system.cpu0.dcache.ReadReq_misses::total       582279                       # number of ReadReq misses
system.cpu0.dcache.WriteReq_misses::cpu0.data       261739                       # number of WriteReq misses
system.cpu0.dcache.WriteReq_misses::total       261739                       # number of WriteReq misses
system.cpu0.dcache.LoadLockedReq_misses::cpu0.data         2214                       # number of LoadLockedReq misses
system.cpu0.dcache.LoadLockedReq_misses::total         2214                       # number of LoadLockedReq misses
system.cpu0.dcache.StoreCondReq_misses::cpu0.data         2116                       # number of StoreCondReq misses
system.cpu0.dcache.StoreCondReq_misses::total         2116                       # number of StoreCondReq misses
system.cpu0.dcache.demand_misses::cpu0.data       844018                       # number of demand (read+write) misses
system.cpu0.dcache.demand_misses::total        844018                       # number of demand (read+write) misses
system.cpu0.dcache.overall_misses::cpu0.data       844018                       # number of overall misses
system.cpu0.dcache.overall_misses::total       844018                       # number of overall misses
system.cpu0.dcache.ReadReq_miss_latency::cpu0.data  28666899000                       # number of ReadReq miss cycles
system.cpu0.dcache.ReadReq_miss_latency::total  28666899000                       # number of ReadReq miss cycles
system.cpu0.dcache.WriteReq_miss_latency::cpu0.data  14301606707                       # number of WriteReq miss cycles
system.cpu0.dcache.WriteReq_miss_latency::total  14301606707                       # number of WriteReq miss cycles
system.cpu0.dcache.LoadLockedReq_miss_latency::cpu0.data     74396000                       # number of LoadLockedReq miss cycles
system.cpu0.dcache.LoadLockedReq_miss_latency::total     74396000                       # number of LoadLockedReq miss cycles
system.cpu0.dcache.StoreCondReq_miss_latency::cpu0.data     60943999                       # number of StoreCondReq miss cycles
system.cpu0.dcache.StoreCondReq_miss_latency::total     60943999                       # number of StoreCondReq miss cycles
system.cpu0.dcache.StoreCondFailReq_miss_latency::cpu0.data     14733000                       # number of StoreCondFailReq miss cycles
system.cpu0.dcache.StoreCondFailReq_miss_latency::total     14733000                       # number of StoreCondFailReq miss cycles
system.cpu0.dcache.demand_miss_latency::cpu0.data  42968505707                       # number of demand (read+write) miss cycles
system.cpu0.dcache.demand_miss_latency::total  42968505707                       # number of demand (read+write) miss cycles
system.cpu0.dcache.overall_miss_latency::cpu0.data  42968505707                       # number of overall miss cycles
system.cpu0.dcache.overall_miss_latency::total  42968505707                       # number of overall miss cycles
system.cpu0.dcache.ReadReq_accesses::cpu0.data     11569947                       # number of ReadReq accesses(hits+misses)
system.cpu0.dcache.ReadReq_accesses::total     11569947                       # number of ReadReq accesses(hits+misses)
system.cpu0.dcache.WriteReq_accesses::cpu0.data      8504327                       # number of WriteReq accesses(hits+misses)
system.cpu0.dcache.WriteReq_accesses::total      8504327                       # number of WriteReq accesses(hits+misses)
system.cpu0.dcache.LoadLockedReq_accesses::cpu0.data         7485                       # number of LoadLockedReq accesses(hits+misses)
system.cpu0.dcache.LoadLockedReq_accesses::total         7485                       # number of LoadLockedReq accesses(hits+misses)
system.cpu0.dcache.StoreCondReq_accesses::cpu0.data         6708                       # number of StoreCondReq accesses(hits+misses)
system.cpu0.dcache.StoreCondReq_accesses::total         6708                       # number of StoreCondReq accesses(hits+misses)
system.cpu0.dcache.demand_accesses::cpu0.data     20074274                       # number of demand (read+write) accesses
system.cpu0.dcache.demand_accesses::total     20074274                       # number of demand (read+write) accesses
system.cpu0.dcache.overall_accesses::cpu0.data     20074274                       # number of overall (read+write) accesses
system.cpu0.dcache.overall_accesses::total     20074274                       # number of overall (read+write) accesses
system.cpu0.dcache.ReadReq_miss_rate::cpu0.data     0.050327                       # miss rate for ReadReq accesses
system.cpu0.dcache.ReadReq_miss_rate::total     0.050327                       # miss rate for ReadReq accesses
system.cpu0.dcache.WriteReq_miss_rate::cpu0.data     0.030777                       # miss rate for WriteReq accesses
system.cpu0.dcache.WriteReq_miss_rate::total     0.030777                       # miss rate for WriteReq accesses
system.cpu0.dcache.LoadLockedReq_miss_rate::cpu0.data     0.295792                       # miss rate for LoadLockedReq accesses
system.cpu0.dcache.LoadLockedReq_miss_rate::total     0.295792                       # miss rate for LoadLockedReq accesses
system.cpu0.dcache.StoreCondReq_miss_rate::cpu0.data     0.315444                       # miss rate for StoreCondReq accesses
system.cpu0.dcache.StoreCondReq_miss_rate::total     0.315444                       # miss rate for StoreCondReq accesses
system.cpu0.dcache.demand_miss_rate::cpu0.data     0.042045                       # miss rate for demand accesses
system.cpu0.dcache.demand_miss_rate::total     0.042045                       # miss rate for demand accesses
system.cpu0.dcache.overall_miss_rate::cpu0.data     0.042045                       # miss rate for overall accesses
system.cpu0.dcache.overall_miss_rate::total     0.042045                       # miss rate for overall accesses
system.cpu0.dcache.ReadReq_avg_miss_latency::cpu0.data 49232.239184                       # average ReadReq miss latency
system.cpu0.dcache.ReadReq_avg_miss_latency::total 49232.239184                       # average ReadReq miss latency
system.cpu0.dcache.WriteReq_avg_miss_latency::cpu0.data 54640.717306                       # average WriteReq miss latency
system.cpu0.dcache.WriteReq_avg_miss_latency::total 54640.717306                       # average WriteReq miss latency
system.cpu0.dcache.LoadLockedReq_avg_miss_latency::cpu0.data 33602.529359                       # average LoadLockedReq miss latency
system.cpu0.dcache.LoadLockedReq_avg_miss_latency::total 33602.529359                       # average LoadLockedReq miss latency
system.cpu0.dcache.StoreCondReq_avg_miss_latency::cpu0.data 28801.511815                       # average StoreCondReq miss latency
system.cpu0.dcache.StoreCondReq_avg_miss_latency::total 28801.511815                       # average StoreCondReq miss latency
system.cpu0.dcache.StoreCondFailReq_avg_miss_latency::cpu0.data          inf                       # average StoreCondFailReq miss latency
system.cpu0.dcache.StoreCondFailReq_avg_miss_latency::total          inf                       # average StoreCondFailReq miss latency
system.cpu0.dcache.demand_avg_miss_latency::cpu0.data 50909.466039                       # average overall miss latency
system.cpu0.dcache.demand_avg_miss_latency::total 50909.466039                       # average overall miss latency
system.cpu0.dcache.overall_avg_miss_latency::cpu0.data 50909.466039                       # average overall miss latency
system.cpu0.dcache.overall_avg_miss_latency::total 50909.466039                       # average overall miss latency
system.cpu0.dcache.blocked_cycles::no_mshrs       283779                       # number of cycles access was blocked
system.cpu0.dcache.blocked_cycles::no_targets           17                       # number of cycles access was blocked
system.cpu0.dcache.blocked::no_mshrs             6913                       # number of cycles access was blocked
system.cpu0.dcache.blocked::no_targets              1                       # number of cycles access was blocked
system.cpu0.dcache.avg_blocked_cycles::no_mshrs    41.050051                       # average number of cycles each access was blocked
system.cpu0.dcache.avg_blocked_cycles::no_targets           17                       # average number of cycles each access was blocked
system.cpu0.dcache.writebacks::writebacks       169416                       # number of writebacks
system.cpu0.dcache.writebacks::total           169416                       # number of writebacks
system.cpu0.dcache.ReadReq_mshr_hits::cpu0.data       161217                       # number of ReadReq MSHR hits
system.cpu0.dcache.ReadReq_mshr_hits::total       161217                       # number of ReadReq MSHR hits
system.cpu0.dcache.WriteReq_mshr_hits::cpu0.data       150356                       # number of WriteReq MSHR hits
system.cpu0.dcache.WriteReq_mshr_hits::total       150356                       # number of WriteReq MSHR hits
system.cpu0.dcache.LoadLockedReq_mshr_hits::cpu0.data         1555                       # number of LoadLockedReq MSHR hits
system.cpu0.dcache.LoadLockedReq_mshr_hits::total         1555                       # number of LoadLockedReq MSHR hits
system.cpu0.dcache.demand_mshr_hits::cpu0.data       311573                       # number of demand (read+write) MSHR hits
system.cpu0.dcache.demand_mshr_hits::total       311573                       # number of demand (read+write) MSHR hits
system.cpu0.dcache.overall_mshr_hits::cpu0.data       311573                       # number of overall MSHR hits
system.cpu0.dcache.overall_mshr_hits::total       311573                       # number of overall MSHR hits
system.cpu0.dcache.ReadReq_mshr_misses::cpu0.data       421062                       # number of ReadReq MSHR misses
system.cpu0.dcache.ReadReq_mshr_misses::total       421062                       # number of ReadReq MSHR misses
system.cpu0.dcache.WriteReq_mshr_misses::cpu0.data       111383                       # number of WriteReq MSHR misses
system.cpu0.dcache.WriteReq_mshr_misses::total       111383                       # number of WriteReq MSHR misses
system.cpu0.dcache.LoadLockedReq_mshr_misses::cpu0.data          659                       # number of LoadLockedReq MSHR misses
system.cpu0.dcache.LoadLockedReq_mshr_misses::total          659                       # number of LoadLockedReq MSHR misses
system.cpu0.dcache.StoreCondReq_mshr_misses::cpu0.data         2116                       # number of StoreCondReq MSHR misses
system.cpu0.dcache.StoreCondReq_mshr_misses::total         2116                       # number of StoreCondReq MSHR misses
system.cpu0.dcache.demand_mshr_misses::cpu0.data       532445                       # number of demand (read+write) MSHR misses
system.cpu0.dcache.demand_mshr_misses::total       532445                       # number of demand (read+write) MSHR misses
system.cpu0.dcache.overall_mshr_misses::cpu0.data       532445                       # number of overall MSHR misses
system.cpu0.dcache.overall_mshr_misses::total       532445                       # number of overall MSHR misses
system.cpu0.dcache.ReadReq_mshr_miss_latency::cpu0.data  20335697003                       # number of ReadReq MSHR miss cycles
system.cpu0.dcache.ReadReq_mshr_miss_latency::total  20335697003                       # number of ReadReq MSHR miss cycles
system.cpu0.dcache.WriteReq_mshr_miss_latency::cpu0.data   6097194746                       # number of WriteReq MSHR miss cycles
system.cpu0.dcache.WriteReq_mshr_miss_latency::total   6097194746                       # number of WriteReq MSHR miss cycles
system.cpu0.dcache.LoadLockedReq_mshr_miss_latency::cpu0.data     19042000                       # number of LoadLockedReq MSHR miss cycles
system.cpu0.dcache.LoadLockedReq_mshr_miss_latency::total     19042000                       # number of LoadLockedReq MSHR miss cycles
system.cpu0.dcache.StoreCondReq_mshr_miss_latency::cpu0.data     57345654                       # number of StoreCondReq MSHR miss cycles
system.cpu0.dcache.StoreCondReq_mshr_miss_latency::total     57345654                       # number of StoreCondReq MSHR miss cycles
system.cpu0.dcache.StoreCondFailReq_mshr_miss_latency::cpu0.data     14099000                       # number of StoreCondFailReq MSHR miss cycles
system.cpu0.dcache.StoreCondFailReq_mshr_miss_latency::total     14099000                       # number of StoreCondFailReq MSHR miss cycles
system.cpu0.dcache.demand_mshr_miss_latency::cpu0.data  26432891749                       # number of demand (read+write) MSHR miss cycles
system.cpu0.dcache.demand_mshr_miss_latency::total  26432891749                       # number of demand (read+write) MSHR miss cycles
system.cpu0.dcache.overall_mshr_miss_latency::cpu0.data  26432891749                       # number of overall MSHR miss cycles
system.cpu0.dcache.overall_mshr_miss_latency::total  26432891749                       # number of overall MSHR miss cycles
system.cpu0.dcache.ReadReq_mshr_miss_rate::cpu0.data     0.036393                       # mshr miss rate for ReadReq accesses
system.cpu0.dcache.ReadReq_mshr_miss_rate::total     0.036393                       # mshr miss rate for ReadReq accesses
[...]
system.cpu7.icache.ReadReq_avg_miss_latency::cpu7.inst 52410.735203                       # average ReadReq miss latency
system.cpu7.icache.ReadReq_avg_miss_latency::total 52410.735203                       # average ReadReq miss latency
system.cpu7.icache.demand_avg_miss_latency::cpu7.inst 52410.735203                       # average overall miss latency
system.cpu7.icache.demand_avg_miss_latency::total 52410.735203                       # average overall miss latency
system.cpu7.icache.overall_avg_miss_latency::cpu7.inst 52410.735203                       # average overall miss latency
system.cpu7.icache.overall_avg_miss_latency::total 52410.735203                       # average overall miss latency
system.cpu7.icache.blocked_cycles::no_mshrs          618                       # number of cycles access was blocked
system.cpu7.icache.blocked_cycles::no_targets            0                       # number of cycles access was blocked
system.cpu7.icache.blocked::no_mshrs               22                       # number of cycles access was blocked
system.cpu7.icache.blocked::no_targets              0                       # number of cycles access was blocked
system.cpu7.icache.avg_blocked_cycles::no_mshrs    28.090909                       # average number of cycles each access was blocked
system.cpu7.icache.avg_blocked_cycles::no_targets          nan                       # average number of cycles each access was blocked
system.cpu7.icache.writebacks::writebacks       520225                       # number of writebacks
system.cpu7.icache.writebacks::total           520225                       # number of writebacks
system.cpu7.icache.ReadReq_mshr_hits::cpu7.inst        49902                       # number of ReadReq MSHR hits
system.cpu7.icache.ReadReq_mshr_hits::total        49902                       # number of ReadReq MSHR hits
system.cpu7.icache.demand_mshr_hits::cpu7.inst        49902                       # number of demand (read+write) MSHR hits
system.cpu7.icache.demand_mshr_hits::total        49902                       # number of demand (read+write) MSHR hits
system.cpu7.icache.overall_mshr_hits::cpu7.inst        49902                       # number of overall MSHR hits
system.cpu7.icache.overall_mshr_hits::total        49902                       # number of overall MSHR hits
system.cpu7.icache.ReadReq_mshr_misses::cpu7.inst       520241                       # number of ReadReq MSHR misses
system.cpu7.icache.ReadReq_mshr_misses::total       520241                       # number of ReadReq MSHR misses
system.cpu7.icache.demand_mshr_misses::cpu7.inst       520241                       # number of demand (read+write) MSHR misses
system.cpu7.icache.demand_mshr_misses::total       520241                       # number of demand (read+write) MSHR misses
system.cpu7.icache.overall_mshr_misses::cpu7.inst       520241                       # number of overall MSHR misses
system.cpu7.icache.overall_mshr_misses::total       520241                       # number of overall MSHR misses
system.cpu7.icache.ReadReq_mshr_miss_latency::cpu7.inst  27124964801                       # number of ReadReq MSHR miss cycles
system.cpu7.icache.ReadReq_mshr_miss_latency::total  27124964801                       # number of ReadReq MSHR miss cycles
system.cpu7.icache.demand_mshr_miss_latency::cpu7.inst  27124964801                       # number of demand (read+write) MSHR miss cycles
system.cpu7.icache.demand_mshr_miss_latency::total  27124964801                       # number of demand (read+write) MSHR miss cycles
system.cpu7.icache.overall_mshr_miss_latency::cpu7.inst  27124964801                       # number of overall MSHR miss cycles
system.cpu7.icache.overall_mshr_miss_latency::total  27124964801                       # number of overall MSHR miss cycles
system.cpu7.icache.ReadReq_mshr_miss_rate::cpu7.inst     0.052323                       # mshr miss rate for ReadReq accesses
system.cpu7.icache.ReadReq_mshr_miss_rate::total     0.052323                       # mshr miss rate for ReadReq accesses
system.cpu7.icache.demand_mshr_miss_rate::cpu7.inst     0.052323                       # mshr miss rate for demand accesses
system.cpu7.icache.demand_mshr_miss_rate::total     0.052323                       # mshr miss rate for demand accesses
system.cpu7.icache.overall_mshr_miss_rate::cpu7.inst     0.052323                       # mshr miss rate for overall accesses
system.cpu7.icache.overall_mshr_miss_rate::total     0.052323                       # mshr miss rate for overall accesses
system.cpu7.icache.ReadReq_avg_mshr_miss_latency::cpu7.inst 52139.229321                       # average ReadReq mshr miss latency
system.cpu7.icache.ReadReq_avg_mshr_miss_latency::total 52139.229321                       # average ReadReq mshr miss latency
system.cpu7.icache.demand_avg_mshr_miss_latency::cpu7.inst 52139.229321                       # average overall mshr miss latency
system.cpu7.icache.demand_avg_mshr_miss_latency::total 52139.229321                       # average overall mshr miss latency
system.cpu7.icache.overall_avg_mshr_miss_latency::cpu7.inst 52139.229321                       # average overall mshr miss latency
system.cpu7.icache.overall_avg_mshr_miss_latency::total 52139.229321                       # average overall mshr miss latency
system.cpu_voltage_domain.voltage                   1                       # Voltage in Volts
system.cpu_clk_domain.clock                       500                       # Clock period in ticks
system.membus.snoop_filter.tot_requests      21621470                       # Total number of requests made to the snoop filter.
system.membus.snoop_filter.hit_single_requests      8414887                       # Number of requests hitting in the snoop filter with a single holder of the requested data.
system.membus.snoop_filter.hit_multi_requests      6318398                       # Number of requests hitting in the snoop filter with multiple (>1) holders of the requested data.
system.membus.snoop_filter.tot_snoops               0                       # Total number of snoops made to the snoop filter.
system.membus.snoop_filter.hit_single_snoops            0                       # Number of snoops hitting in the snoop filter with a single holder of the requested data.
system.membus.snoop_filter.hit_multi_snoops            0                       # Number of snoops hitting in the snoop filter with multiple (>1) holders of the requested data.
system.membus.pwrStateResidencyTicks::UNDEFINED 170579785000                       # Cumulative time (in ticks) in various power states
system.membus.trans_dist::ReadResp            8495624                       # Transaction distribution
system.membus.trans_dist::ReadRespWithInvalidate          103                       # Transaction distribution
system.membus.trans_dist::WritebackDirty       425035                       # Transaction distribution
system.membus.trans_dist::WritebackClean      7274290                       # Transaction distribution
system.membus.trans_dist::CleanEvict          1056599                       # Transaction distribution
system.membus.trans_dist::UpgradeReq             3286                       # Transaction distribution
system.membus.trans_dist::SCUpgradeReq           7954                       # Transaction distribution
system.membus.trans_dist::UpgradeResp            7142                       # Transaction distribution
system.membus.trans_dist::SCUpgradeFailReq         1993                       # Transaction distribution
system.membus.trans_dist::UpgradeFailResp         1993                       # Transaction distribution
system.membus.trans_dist::ReadExReq            278957                       # Transaction distribution
system.membus.trans_dist::ReadExResp           278957                       # Transaction distribution
system.membus.trans_dist::ReadCleanReq        7274422                       # Transaction distribution
system.membus.trans_dist::ReadSharedReq       1221306                       # Transaction distribution
system.membus.pkt_count_system.cpu0.icache.mem_side::system.physmem.port      6247706                       # Packet count per connected master and slave (bytes)
system.membus.pkt_count_system.cpu0.dcache.mem_side::system.physmem.port      1593079                       # Packet count per connected master and slave (bytes)
system.membus.pkt_count_system.cpu1.icache.mem_side::system.physmem.port      2328365                       # Packet count per connected master and slave (bytes)
system.membus.pkt_count_system.cpu1.dcache.mem_side::system.physmem.port       429478                       # Packet count per connected master and slave (bytes)
system.membus.pkt_count_system.cpu2.icache.mem_side::system.physmem.port      2337170                       # Packet count per connected master and slave (bytes)
system.membus.pkt_count_system.cpu2.dcache.mem_side::system.physmem.port       431251                       # Packet count per connected master and slave (bytes)
system.membus.pkt_count_system.cpu3.icache.mem_side::system.physmem.port      2337032                       # Packet count per connected master and slave (bytes)
system.membus.pkt_count_system.cpu3.dcache.mem_side::system.physmem.port       431792                       # Packet count per connected master and slave (bytes)
system.membus.pkt_count_system.cpu4.icache.mem_side::system.physmem.port      2336274                       # Packet count per connected master and slave (bytes)
system.membus.pkt_count_system.cpu4.dcache.mem_side::system.physmem.port       434155                       # Packet count per connected master and slave (bytes)
system.membus.pkt_count_system.cpu5.icache.mem_side::system.physmem.port      2338961                       # Packet count per connected master and slave (bytes)
system.membus.pkt_count_system.cpu5.dcache.mem_side::system.physmem.port       431621                       # Packet count per connected master and slave (bytes)
system.membus.pkt_count_system.cpu6.icache.mem_side::system.physmem.port      2336908                       # Packet count per connected master and slave (bytes)
system.membus.pkt_count_system.cpu6.dcache.mem_side::system.physmem.port       433562                       # Packet count per connected master and slave (bytes)
system.membus.pkt_count_system.cpu7.icache.mem_side::system.physmem.port      1560707                       # Packet count per connected master and slave (bytes)
system.membus.pkt_count_system.cpu7.dcache.mem_side::system.physmem.port       291008                       # Packet count per connected master and slave (bytes)
system.membus.pkt_count::total               26299069                       # Packet count per connected master and slave (bytes)
system.membus.pkt_size_system.cpu0.icache.mem_side::system.physmem.port    266568384                       # Cumulative packet size per connected master and slave (bytes)
system.membus.pkt_size_system.cpu0.dcache.mem_side::system.physmem.port     44660288                       # Cumulative packet size per connected master and slave (bytes)
system.membus.pkt_size_system.cpu1.icache.mem_side::system.physmem.port     99343232                       # Cumulative packet size per connected master and slave (bytes)
system.membus.pkt_size_system.cpu1.dcache.mem_side::system.physmem.port     11582144                       # Cumulative packet size per connected master and slave (bytes)
system.membus.pkt_size_system.cpu2.icache.mem_side::system.physmem.port     99718912                       # Cumulative packet size per connected master and slave (bytes)
system.membus.pkt_size_system.cpu2.dcache.mem_side::system.physmem.port     11548160                       # Cumulative packet size per connected master and slave (bytes)
system.membus.pkt_size_system.cpu3.icache.mem_side::system.physmem.port     99713024                       # Cumulative packet size per connected master and slave (bytes)
system.membus.pkt_size_system.cpu3.dcache.mem_side::system.physmem.port     11619904                       # Cumulative packet size per connected master and slave (bytes)
system.membus.pkt_size_system.cpu4.icache.mem_side::system.physmem.port     99680640                       # Cumulative packet size per connected master and slave (bytes)
system.membus.pkt_size_system.cpu4.dcache.mem_side::system.physmem.port     11655168                       # Cumulative packet size per connected master and slave (bytes)
system.membus.pkt_size_system.cpu5.icache.mem_side::system.physmem.port     99795328                       # Cumulative packet size per connected master and slave (bytes)
system.membus.pkt_size_system.cpu5.dcache.mem_side::system.physmem.port     11600448                       # Cumulative packet size per connected master and slave (bytes)
system.membus.pkt_size_system.cpu6.icache.mem_side::system.physmem.port     99707520                       # Cumulative packet size per connected master and slave (bytes)
system.membus.pkt_size_system.cpu6.dcache.mem_side::system.physmem.port     11587456                       # Cumulative packet size per connected master and slave (bytes)
system.membus.pkt_size_system.cpu7.icache.mem_side::system.physmem.port     66589824                       # Cumulative packet size per connected master and slave (bytes)
system.membus.pkt_size_system.cpu7.dcache.mem_side::system.physmem.port      7720896                       # Cumulative packet size per connected master and slave (bytes)
system.membus.pkt_size::total              1053091328                       # Cumulative packet size per connected master and slave (bytes)
system.membus.snoops                            28592                       # Total snoops (count)
system.membus.snoopTraffic                    1372800                       # Total snoop traffic (bytes)
system.membus.snoop_fanout::samples          11365088                       # Request fanout histogram
system.membus.snoop_fanout::mean             1.094437                       # Request fanout histogram
system.membus.snoop_fanout::stdev            1.775679                       # Request fanout histogram
system.membus.snoop_fanout::underflows              0      0.00%      0.00% # Request fanout histogram
system.membus.snoop_fanout::0                 6889284     60.62%     60.62% # Request fanout histogram
system.membus.snoop_fanout::1                 1530202     13.46%     74.08% # Request fanout histogram
system.membus.snoop_fanout::2                  914827      8.05%     82.13% # Request fanout histogram
system.membus.snoop_fanout::3                  675411      5.94%     88.07% # Request fanout histogram
system.membus.snoop_fanout::4                  419996      3.70%     91.77% # Request fanout histogram
system.membus.snoop_fanout::5                  422235      3.72%     95.49% # Request fanout histogram
system.membus.snoop_fanout::6                  344843      3.03%     98.52% # Request fanout histogram
system.membus.snoop_fanout::7                  162847      1.43%     99.95% # Request fanout histogram
system.membus.snoop_fanout::8                    1337      0.01%     99.96% # Request fanout histogram
system.membus.snoop_fanout::9                    1651      0.01%     99.98% # Request fanout histogram
system.membus.snoop_fanout::10                   1151      0.01%     99.99% # Request fanout histogram
system.membus.snoop_fanout::11                    835      0.01%    100.00% # Request fanout histogram
system.membus.snoop_fanout::12                    287      0.00%    100.00% # Request fanout histogram
system.membus.snoop_fanout::13                    126      0.00%    100.00% # Request fanout histogram
system.membus.snoop_fanout::14                     34      0.00%    100.00% # Request fanout histogram
system.membus.snoop_fanout::15                     22      0.00%    100.00% # Request fanout histogram
system.membus.snoop_fanout::16                      0      0.00%    100.00% # Request fanout histogram
system.membus.snoop_fanout::overflows               0      0.00%    100.00% # Request fanout histogram
system.membus.snoop_fanout::min_value               0                       # Request fanout histogram
system.membus.snoop_fanout::max_value              15                       # Request fanout histogram
system.membus.snoop_fanout::total            11365088                       # Request fanout histogram
system.membus.reqLayer0.occupancy         54276581023                       # Layer occupancy (ticks)
system.membus.reqLayer0.utilization              31.8                       # Layer utilization (%)
system.membus.respLayer1.occupancy        10412870000                       # Layer occupancy (ticks)
system.membus.respLayer1.utilization              6.1                       # Layer utilization (%)
system.membus.respLayer2.occupancy         2664569694                       # Layer occupancy (ticks)
system.membus.respLayer2.utilization              1.6                       # Layer utilization (%)
system.membus.respLayer5.occupancy         3880635000                       # Layer occupancy (ticks)
system.membus.respLayer5.utilization              2.3                       # Layer utilization (%)
system.membus.respLayer6.occupancy          718872060                       # Layer occupancy (ticks)
system.membus.respLayer6.utilization              0.4                       # Layer utilization (%)
system.membus.respLayer9.occupancy         3895310000                       # Layer occupancy (ticks)
system.membus.respLayer9.utilization              2.3                       # Layer utilization (%)
system.membus.respLayer10.occupancy         727269534                       # Layer occupancy (ticks)
system.membus.respLayer10.utilization             0.4                       # Layer utilization (%)
system.membus.respLayer13.occupancy        3895080000                       # Layer occupancy (ticks)
system.membus.respLayer13.utilization             2.3                       # Layer utilization (%)
system.membus.respLayer14.occupancy         723973252                       # Layer occupancy (ticks)
system.membus.respLayer14.utilization             0.4                       # Layer utilization (%)
system.membus.respLayer17.occupancy        3893820999                       # Layer occupancy (ticks)
system.membus.respLayer17.utilization             2.3                       # Layer utilization (%)
system.membus.respLayer18.occupancy         730375654                       # Layer occupancy (ticks)
system.membus.respLayer18.utilization             0.4                       # Layer utilization (%)
system.membus.respLayer21.occupancy        3898295000                       # Layer occupancy (ticks)
system.membus.respLayer21.utilization             2.3                       # Layer utilization (%)
system.membus.respLayer22.occupancy         725412378                       # Layer occupancy (ticks)
system.membus.respLayer22.utilization             0.4                       # Layer utilization (%)
system.membus.respLayer25.occupancy        3894890000                       # Layer occupancy (ticks)
system.membus.respLayer25.utilization             2.3                       # Layer utilization (%)
system.membus.respLayer26.occupancy         733093870                       # Layer occupancy (ticks)
system.membus.respLayer26.utilization             0.4                       # Layer utilization (%)
system.membus.respLayer29.occupancy        2601205000                       # Layer occupancy (ticks)
system.membus.respLayer29.utilization             1.5                       # Layer utilization (%)
system.membus.respLayer30.occupancy         496625447                       # Layer occupancy (ticks)
system.membus.respLayer30.utilization             0.3                       # Layer utilization (%)

---------- End Simulation Statistics   ----------
