
---------- Begin Simulation Statistics ----------
sim_seconds                                  0.545533                       # Number of seconds simulated
sim_ticks                                545532989000                       # Number of ticks simulated
final_tick                               545532989000                       # Number of ticks from beginning of simulation (restored from checkpoints and never reset)
sim_freq                                 1000000000000                       # Frequency of simulated ticks
host_inst_rate                                 200543                       # Simulator instruction rate (inst/s)
host_op_rate                                   226725                       # Simulator op (including micro ops) rate (op/s)
host_tick_rate                              192384543                       # Simulator tick rate (ticks/s)
host_mem_usage                                 720780                       # Number of bytes of host memory used
host_seconds                                  2835.64                       # Real time elapsed on the host
sim_insts                                   568667623                       # Number of instructions simulated
sim_ops                                     642909341                       # Number of ops (including micro ops) simulated
system.voltage_domain.voltage                       1                       # Voltage in Volts
system.clk_domain.clock                          1000                       # Clock period in ticks
system.physmem.pwrStateResidencyTicks::UNDEFINED 545532989000                       # Cumulative time (in ticks) in various power states
system.physmem.bytes_read::cpu0.inst           117696                       # Number of bytes read from this memory
system.physmem.bytes_read::cpu0.data           284544                       # Number of bytes read from this memory
system.physmem.bytes_read::total               402240                       # Number of bytes read from this memory
system.physmem.bytes_inst_read::cpu0.inst       117696                       # Number of instructions bytes read from this memory
system.physmem.bytes_inst_read::total          117696                       # Number of instructions bytes read from this memory
system.physmem.bytes_written::writebacks        70272                       # Number of bytes written to this memory
system.physmem.bytes_written::total             70272                       # Number of bytes written to this memory
system.physmem.num_reads::cpu0.inst              1839                       # Number of read requests responded to by this memory
system.physmem.num_reads::cpu0.data              4446                       # Number of read requests responded to by this memory
system.physmem.num_reads::total                  6285                       # Number of read requests responded to by this memory
system.physmem.num_writes::writebacks            1098                       # Number of write requests responded to by this memory
system.physmem.num_writes::total                 1098                       # Number of write requests responded to by this memory
system.physmem.bw_read::cpu0.inst              215745                       # Total read bandwidth from this memory (bytes/s)
system.physmem.bw_read::cpu0.data              521589                       # Total read bandwidth from this memory (bytes/s)
system.physmem.bw_read::total                  737334                       # Total read bandwidth from this memory (bytes/s)
system.physmem.bw_inst_read::cpu0.inst         215745                       # Instruction read bandwidth from this memory (bytes/s)
system.physmem.bw_inst_read::total             215745                       # Instruction read bandwidth from this memory (bytes/s)
system.physmem.bw_write::writebacks            128813                       # Write bandwidth from this memory (bytes/s)
system.physmem.bw_write::total                 128813                       # Write bandwidth from this memory (bytes/s)
system.physmem.bw_total::writebacks            128813                       # Total bandwidth to/from this memory (bytes/s)
system.physmem.bw_total::cpu0.inst             215745                       # Total bandwidth to/from this memory (bytes/s)
system.physmem.bw_total::cpu0.data             521589                       # Total bandwidth to/from this memory (bytes/s)
system.physmem.bw_total::total                 866147                       # Total bandwidth to/from this memory (bytes/s)
system.pwrStateResidencyTicks::UNDEFINED 545532989000                       # Cumulative time (in ticks) in various power states
system.cpu0.branchPred.lookups              116589863                       # Number of BP lookups
system.cpu0.branchPred.condPredicted         67246107                       # Number of conditional branches predicted
system.cpu0.branchPred.condIncorrect          2795026                       # Number of conditional branches incorrect
system.cpu0.branchPred.BTBLookups            64754825                       # Number of BTB lookups
system.cpu0.branchPred.BTBHits               55154661                       # Number of BTB hits
system.cpu0.branchPred.BTBCorrect                   0                       # Number of correct BTB predictions (this stat may not work properly.
system.cpu0.branchPred.BTBHitPct            85.174597                       # BTB Hit Percentage
system.cpu0.branchPred.usedRAS               16025047                       # Number of times the RAS was used to get a target.
system.cpu0.branchPred.RASInCorrect            300449                       # Number of incorrect RAS predictions.
system.cpu0.branchPred.indirectLookups        3629203                       # Number of indirect predictor lookups.
system.cpu0.branchPred.indirectHits           3595315                       # Number of indirect target hits.
system.cpu0.branchPred.indirectMisses           33888                       # Number of indirect misses.
system.cpu0.branchPredindirectMispredicted        26090                       # Number of mispredicted indirect branches.
system.cpu0.dstage2_mmu.stage2_tlb.walker.pwrStateResidencyTicks::UNDEFINED 545532989000                       # Cumulative time (in ticks) in various power states
system.cpu0.dstage2_mmu.stage2_tlb.walker.walks            0                       # Table walker walks requested
system.cpu0.dstage2_mmu.stage2_tlb.walker.walkRequestOrigin_Requested::Data            0                       # Table walker requests started/completed, data/inst
system.cpu0.dstage2_mmu.stage2_tlb.walker.walkRequestOrigin_Requested::Inst            0                       # Table walker requests started/completed, data/inst
system.cpu0.dstage2_mmu.stage2_tlb.walker.walkRequestOrigin_Requested::total            0                       # Table walker requests started/completed, data/inst
system.cpu0.dstage2_mmu.stage2_tlb.walker.walkRequestOrigin_Completed::Data            0                       # Table walker requests started/completed, data/inst
system.cpu0.dstage2_mmu.stage2_tlb.walker.walkRequestOrigin_Completed::Inst            0                       # Table walker requests started/completed, data/inst
system.cpu0.dstage2_mmu.stage2_tlb.walker.walkRequestOrigin_Completed::total            0                       # Table walker requests started/completed, data/inst
system.cpu0.dstage2_mmu.stage2_tlb.walker.walkRequestOrigin::total            0                       # Table walker requests started/completed, data/inst
system.cpu0.dstage2_mmu.stage2_tlb.inst_hits            0                       # ITB inst hits
system.cpu0.dstage2_mmu.stage2_tlb.inst_misses            0                       # ITB inst misses
system.cpu0.dstage2_mmu.stage2_tlb.read_hits            0                       # DTB read hits
system.cpu0.dstage2_mmu.stage2_tlb.read_misses            0                       # DTB read misses
system.cpu0.dstage2_mmu.stage2_tlb.write_hits            0                       # DTB write hits
system.cpu0.dstage2_mmu.stage2_tlb.write_misses            0                       # DTB write misses
system.cpu0.dstage2_mmu.stage2_tlb.flush_tlb            0                       # Number of times complete TLB was flushed
system.cpu0.dstage2_mmu.stage2_tlb.flush_tlb_mva            0                       # Number of times TLB was flushed by MVA
system.cpu0.dstage2_mmu.stage2_tlb.flush_tlb_mva_asid            0                       # Number of times TLB was flushed by MVA & ASID
system.cpu0.dstage2_mmu.stage2_tlb.flush_tlb_asid            0                       # Number of times TLB was flushed by ASID
system.cpu0.dstage2_mmu.stage2_tlb.flush_entries            0                       # Number of entries that have been flushed from TLB
system.cpu0.dstage2_mmu.stage2_tlb.align_faults            0                       # Number of TLB faults due to alignment restrictions
system.cpu0.dstage2_mmu.stage2_tlb.prefetch_faults            0                       # Number of TLB faults due to prefetch
system.cpu0.dstage2_mmu.stage2_tlb.domain_faults            0                       # Number of TLB faults due to domain restrictions
system.cpu0.dstage2_mmu.stage2_tlb.perms_faults            0                       # Number of TLB faults due to permissions restrictions
system.cpu0.dstage2_mmu.stage2_tlb.read_accesses            0                       # DTB read accesses
system.cpu0.dstage2_mmu.stage2_tlb.write_accesses            0                       # DTB write accesses
system.cpu0.dstage2_mmu.stage2_tlb.inst_accesses            0                       # ITB inst accesses
system.cpu0.dstage2_mmu.stage2_tlb.hits             0                       # DTB hits
system.cpu0.dstage2_mmu.stage2_tlb.misses            0                       # DTB misses
system.cpu0.dstage2_mmu.stage2_tlb.accesses            0                       # DTB accesses
system.cpu0.dtb.walker.pwrStateResidencyTicks::UNDEFINED 545532989000                       # Cumulative time (in ticks) in various power states
system.cpu0.dtb.walker.walks                        0                       # Table walker walks requested
system.cpu0.dtb.walker.walkRequestOrigin_Requested::Data            0                       # Table walker requests started/completed, data/inst
system.cpu0.dtb.walker.walkRequestOrigin_Requested::Inst            0                       # Table walker requests started/completed, data/inst
system.cpu0.dtb.walker.walkRequestOrigin_Requested::total            0                       # Table walker requests started/completed, data/inst
system.cpu0.dtb.walker.walkRequestOrigin_Completed::Data            0                       # Table walker requests started/completed, data/inst
system.cpu0.dtb.walker.walkRequestOrigin_Completed::Inst            0                       # Table walker requests started/completed, data/inst
system.cpu0.dtb.walker.walkRequestOrigin_Completed::total            0                       # Table walker requests started/completed, data/inst
system.cpu0.dtb.walker.walkRequestOrigin::total            0                       # Table walker requests started/completed, data/inst
system.cpu0.dtb.inst_hits                           0                       # ITB inst hits
system.cpu0.dtb.inst_misses                         0                       # ITB inst misses
system.cpu0.dtb.read_hits                           0                       # DTB read hits
system.cpu0.dtb.read_misses                         0                       # DTB read misses
system.cpu0.dtb.write_hits                          0                       # DTB write hits
system.cpu0.dtb.write_misses                        0                       # DTB write misses
system.cpu0.dtb.flush_tlb                           0                       # Number of times complete TLB was flushed
system.cpu0.dtb.flush_tlb_mva                       0                       # Number of times TLB was flushed by MVA
system.cpu0.dtb.flush_tlb_mva_asid                  0                       # Number of times TLB was flushed by MVA & ASID
system.cpu0.dtb.flush_tlb_asid                      0                       # Number of times TLB was flushed by ASID
system.cpu0.dtb.flush_entries                       0                       # Number of entries that have been flushed from TLB
system.cpu0.dtb.align_faults                        0                       # Number of TLB faults due to alignment restrictions
system.cpu0.dtb.prefetch_faults                     0                       # Number of TLB faults due to prefetch
system.cpu0.dtb.domain_faults                       0                       # Number of TLB faults due to domain restrictions
system.cpu0.dtb.perms_faults                        0                       # Number of TLB faults due to permissions restrictions
system.cpu0.dtb.read_accesses                       0                       # DTB read accesses
system.cpu0.dtb.write_accesses                      0                       # DTB write accesses
system.cpu0.dtb.inst_accesses                       0                       # ITB inst accesses
system.cpu0.dtb.hits                                0                       # DTB hits
system.cpu0.dtb.misses                              0                       # DTB misses
system.cpu0.dtb.accesses                            0                       # DTB accesses
system.cpu0.istage2_mmu.stage2_tlb.walker.pwrStateResidencyTicks::UNDEFINED 545532989000                       # Cumulative time (in ticks) in various power states
system.cpu0.istage2_mmu.stage2_tlb.walker.walks            0                       # Table walker walks requested
system.cpu0.istage2_mmu.stage2_tlb.walker.walkRequestOrigin_Requested::Data            0                       # Table walker requests started/completed, data/inst
system.cpu0.istage2_mmu.stage2_tlb.walker.walkRequestOrigin_Requested::Inst            0                       # Table walker requests started/completed, data/inst
system.cpu0.istage2_mmu.stage2_tlb.walker.walkRequestOrigin_Requested::total            0                       # Table walker requests started/completed, data/inst
system.cpu0.istage2_mmu.stage2_tlb.walker.walkRequestOrigin_Completed::Data            0                       # Table walker requests started/completed, data/inst
system.cpu0.istage2_mmu.stage2_tlb.walker.walkRequestOrigin_Completed::Inst            0                       # Table walker requests started/completed, data/inst
system.cpu0.istage2_mmu.stage2_tlb.walker.walkRequestOrigin_Completed::total            0                       # Table walker requests started/completed, data/inst
system.cpu0.istage2_mmu.stage2_tlb.walker.walkRequestOrigin::total            0                       # Table walker requests started/completed, data/inst
system.cpu0.istage2_mmu.stage2_tlb.inst_hits            0                       # ITB inst hits
system.cpu0.istage2_mmu.stage2_tlb.inst_misses            0                       # ITB inst misses
system.cpu0.istage2_mmu.stage2_tlb.read_hits            0                       # DTB read hits
system.cpu0.istage2_mmu.stage2_tlb.read_misses            0                       # DTB read misses
system.cpu0.istage2_mmu.stage2_tlb.write_hits            0                       # DTB write hits
system.cpu0.istage2_mmu.stage2_tlb.write_misses            0                       # DTB write misses
system.cpu0.istage2_mmu.stage2_tlb.flush_tlb            0                       # Number of times complete TLB was flushed
system.cpu0.istage2_mmu.stage2_tlb.flush_tlb_mva            0                       # Number of times TLB was flushed by MVA
system.cpu0.istage2_mmu.stage2_tlb.flush_tlb_mva_asid            0                       # Number of times TLB was flushed by MVA & ASID
system.cpu0.istage2_mmu.stage2_tlb.flush_tlb_asid            0                       # Number of times TLB was flushed by ASID
system.cpu0.istage2_mmu.stage2_tlb.flush_entries            0                       # Number of entries that have been flushed from TLB
system.cpu0.istage2_mmu.stage2_tlb.align_faults            0                       # Number of TLB faults due to alignment restrictions
system.cpu0.istage2_mmu.stage2_tlb.prefetch_faults            0                       # Number of TLB faults due to prefetch
system.cpu0.istage2_mmu.stage2_tlb.domain_faults            0                       # Number of TLB faults due to domain restrictions
system.cpu0.istage2_mmu.stage2_tlb.perms_faults            0                       # Number of TLB faults due to permissions restrictions
system.cpu0.istage2_mmu.stage2_tlb.read_accesses            0                       # DTB read accesses
system.cpu0.istage2_mmu.stage2_tlb.write_accesses            0                       # DTB write accesses
system.cpu0.istage2_mmu.stage2_tlb.inst_accesses            0                       # ITB inst accesses
system.cpu0.istage2_mmu.stage2_tlb.hits             0                       # DTB hits
system.cpu0.istage2_mmu.stage2_tlb.misses            0                       # DTB misses
system.cpu0.istage2_mmu.stage2_tlb.accesses            0                       # DTB accesses
system.cpu0.itb.walker.pwrStateResidencyTicks::UNDEFINED 545532989000                       # Cumulative time (in ticks) in various power states
system.cpu0.itb.walker.walks                        0                       # Table walker walks requested
system.cpu0.itb.walker.walkRequestOrigin_Requested::Data            0                       # Table walker requests started/completed, data/inst
system.cpu0.itb.walker.walkRequestOrigin_Requested::Inst            0                       # Table walker requests started/completed, data/inst
system.cpu0.itb.walker.walkRequestOrigin_Requested::total            0                       # Table walker requests started/completed, data/inst
system.cpu0.itb.walker.walkRequestOrigin_Completed::Data            0                       # Table walker requests started/completed, data/inst
system.cpu0.itb.walker.walkRequestOrigin_Completed::Inst            0                       # Table walker requests started/completed, data/inst
system.cpu0.itb.walker.walkRequestOrigin_Completed::total            0                       # Table walker requests started/completed, data/inst
system.cpu0.itb.walker.walkRequestOrigin::total            0                       # Table walker requests started/completed, data/inst
system.cpu0.itb.inst_hits                           0                       # ITB inst hits
system.cpu0.itb.inst_misses                         0                       # ITB inst misses
system.cpu0.itb.read_hits                           0                       # DTB read hits
system.cpu0.itb.read_misses                         0                       # DTB read misses
system.cpu0.itb.write_hits                          0                       # DTB write hits
system.cpu0.itb.write_misses                        0                       # DTB write misses
system.cpu0.itb.flush_tlb                           0                       # Number of times complete TLB was flushed
system.cpu0.itb.flush_tlb_mva                       0                       # Number of times TLB was flushed by MVA
system.cpu0.itb.flush_tlb_mva_asid                  0                       # Number of times TLB was flushed by MVA & ASID
system.cpu0.itb.flush_tlb_asid                      0                       # Number of times TLB was flushed by ASID
system.cpu0.itb.flush_entries                       0                       # Number of entries that have been flushed from TLB
system.cpu0.itb.align_faults                        0                       # Number of TLB faults due to alignment restrictions
system.cpu0.itb.prefetch_faults                     0                       # Number of TLB faults due to prefetch
system.cpu0.itb.domain_faults                       0                       # Number of TLB faults due to domain restrictions
system.cpu0.itb.perms_faults                        0                       # Number of TLB faults due to permissions restrictions
system.cpu0.itb.read_accesses                       0                       # DTB read accesses
system.cpu0.itb.write_accesses                      0                       # DTB write accesses
system.cpu0.itb.inst_accesses                       0                       # ITB inst accesses
system.cpu0.itb.hits                                0                       # DTB hits
system.cpu0.itb.misses                              0                       # DTB misses
system.cpu0.itb.accesses                            0                       # DTB accesses
system.cpu0.workload.num_syscalls                9847                       # Number of system calls
system.cpu0.pwrStateResidencyTicks::ON   545532989000                       # Cumulative time (in ticks) in various power states
system.cpu0.numCycles                       545532990                       # number of cpu cycles simulated
system.cpu0.numWorkItemsStarted                     0                       # number of work items this cpu started
system.cpu0.numWorkItemsCompleted                   0                       # number of work items this cpu completed
system.cpu0.fetch.icacheStallCycles          96738262                       # Number of cycles fetch is stalled on an Icache miss
system.cpu0.fetch.Insts                     670410129                       # Number of instructions fetch has processed
system.cpu0.fetch.Branches                  116589863                       # Number of branches that fetch encountered
system.cpu0.fetch.predictedBranches          74775023                       # Number of branches that fetch has predicted taken
system.cpu0.fetch.Cycles                    445928592                       # Number of cycles fetch has run and was not squashing or blocked
system.cpu0.fetch.SquashCycles                5629135                       # Number of cycles fetch has spent squashing
system.cpu0.fetch.MiscStallCycles                   3                       # Number of cycles fetch has spent waiting on interrupts, or bad addresses, or out of MSHRs
system.cpu0.fetch.PendingTrapStallCycles          215                       # Number of stall cycles due to pending traps
system.cpu0.fetch.CacheLines                 93654198                       # Number of cache lines fetched
system.cpu0.fetch.IcacheSquashes               453575                       # Number of outstanding Icache misses that were squashed
system.cpu0.fetch.rateDist::samples         545481639                       # Number of instructions fetched each cycle (Total)
system.cpu0.fetch.rateDist::mean             1.390956                       # Number of instructions fetched each cycle (Total)
system.cpu0.fetch.rateDist::stdev            0.851181                       # Number of instructions fetched each cycle (Total)
system.cpu0.fetch.rateDist::underflows              0      0.00%      0.00% # Number of instructions fetched each cycle (Total)
system.cpu0.fetch.rateDist::0               132661099     24.32%     24.32% # Number of instructions fetched each cycle (Total)
system.cpu0.fetch.rateDist::1                66900075     12.26%     36.58% # Number of instructions fetched each cycle (Total)
system.cpu0.fetch.rateDist::2               345920465     63.42%    100.00% # Number of instructions fetched each cycle (Total)
system.cpu0.fetch.rateDist::overflows               0      0.00%    100.00% # Number of instructions fetched each cycle (Total)
system.cpu0.fetch.rateDist::min_value               0                       # Number of instructions fetched each cycle (Total)
system.cpu0.fetch.rateDist::max_value               2                       # Number of instructions fetched each cycle (Total)
system.cpu0.fetch.rateDist::total           545481639                       # Number of instructions fetched each cycle (Total)
system.cpu0.fetch.branchRate                 0.213717                       # Number of branch fetches per cycle
system.cpu0.fetch.rate                       1.228909                       # Number of inst fetches per cycle
system.cpu0.decode.IdleCycles                80311461                       # Number of cycles decode is idle
system.cpu0.decode.BlockedCycles             81779851                       # Number of cycles decode is blocked
system.cpu0.decode.RunCycles                294343524                       # Number of cycles decode is running
system.cpu0.decode.UnblockCycles             86442294                       # Number of cycles decode is unblocking
system.cpu0.decode.SquashCycles               2604509                       # Number of cycles decode is squashing
system.cpu0.decode.BranchResolved            34277260                       # Number of times decode resolved a branch
system.cpu0.decode.BranchMispred               211594                       # Number of times decode detected a branch misprediction
system.cpu0.decode.DecodedInsts             741101405                       # Number of instructions handled by decode
system.cpu0.decode.SquashedInsts               355188                       # Number of squashed instructions handled by decode
system.cpu0.rename.SquashCycles               2604509                       # Number of cycles rename is squashing
system.cpu0.rename.IdleCycles                98610560                       # Number of cycles rename is idle
system.cpu0.rename.BlockCycles                9419925                       # Number of cycles rename is blocking
system.cpu0.rename.serializeStallCycles       2787606                       # count of cycles rename stalled for serializing inst
system.cpu0.rename.RunCycles                362337868                       # Number of cycles rename is running
system.cpu0.rename.UnblockCycles             69721171                       # Number of cycles rename is unblocking
system.cpu0.rename.RenamedInsts             737064980                       # Number of instructions processed by rename
system.cpu0.rename.IQFullEvents              53318021                       # Number of times rename has blocked due to IQ full
system.cpu0.rename.LQFullEvents                374335                       # Number of times rename has blocked due to LQ full
system.cpu0.rename.SQFullEvents                  9580                       # Number of times rename has blocked due to SQ full
system.cpu0.rename.RenamedOperands          938386281                       # Number of destination operands rename has renamed
system.cpu0.rename.RenameLookups           3428410428                       # Number of register rename lookups that rename has made
system.cpu0.rename.int_rename_lookups       957784603                       # Number of integer rename lookups
system.cpu0.rename.fp_rename_lookups               16                       # Number of floating rename lookups
system.cpu0.rename.CommittedMaps            803210931                       # Number of HB maps that are committed
system.cpu0.rename.UndoneMaps               135175350                       # Number of HB maps that are undone due to squashing
system.cpu0.rename.serializingInsts             98205                       # count of serializing insts renamed
system.cpu0.rename.tempSerializingInsts         49339                       # count of temporary serializing insts renamed
system.cpu0.rename.skidInsts                 74977932                       # count of insts added to the skid buffer
system.cpu0.memDep0.insertedLoads            90990838                       # Number of loads inserted to the mem dependence unit.
system.cpu0.memDep0.insertedStores           56173209                       # Number of stores inserted to the mem dependence unit.
system.cpu0.memDep0.conflictingLoads         32761795                       # Number of conflicting loads.
system.cpu0.memDep0.conflictingStores        12588754                       # Number of conflicting stores.
system.cpu0.iq.iqInstsAdded                 729080993                       # Number of instructions added to the IQ (excludes non-spec)
system.cpu0.iq.iqNonSpecInstsAdded             106615                       # Number of non-speculative instructions added to the IQ
system.cpu0.iq.iqInstsIssued                655163087                       # Number of instructions issued
system.cpu0.iq.iqSquashedInstsIssued          9996451                       # Number of squashed instructions issued
system.cpu0.iq.iqSquashedInstsExamined       86278267                       # Number of squashed instructions iterated over during squash; mainly for profiling
system.cpu0.iq.iqSquashedOperandsExamined    354048428                       # Number of squashed operands that are examined and possibly removed from graph
system.cpu0.iq.iqSquashedNonSpecRemoved           985                       # Number of squashed non-spec instructions that were removed
system.cpu0.iq.issued_per_cycle::samples    545481639                       # Number of insts issued each cycle
system.cpu0.iq.issued_per_cycle::mean        1.201073                       # Number of insts issued each cycle
system.cpu0.iq.issued_per_cycle::stdev       0.515390                       # Number of insts issued each cycle
system.cpu0.iq.issued_per_cycle::underflows            0      0.00%      0.00% # Number of insts issued each cycle
system.cpu0.iq.issued_per_cycle::0           28633647      5.25%      5.25% # Number of insts issued each cycle
system.cpu0.iq.issued_per_cycle::1          378532897     69.39%     74.64% # Number of insts issued each cycle
system.cpu0.iq.issued_per_cycle::2          138315095     25.36%    100.00% # Number of insts issued each cycle
system.cpu0.iq.issued_per_cycle::overflows            0      0.00%    100.00% # Number of insts issued each cycle
system.cpu0.iq.issued_per_cycle::min_value            0                       # Number of insts issued each cycle
system.cpu0.iq.issued_per_cycle::max_value            2                       # Number of insts issued each cycle
system.cpu0.iq.issued_per_cycle::total      545481639                       # Number of insts issued each cycle
system.cpu0.iq.fu_full::No_OpClass                  0      0.00%      0.00% # attempts to use FU when none available
system.cpu0.iq.fu_full::IntAlu              405900256     94.91%     94.91% # attempts to use FU when none available
system.cpu0.iq.fu_full::IntMult                     0      0.00%     94.91% # attempts to use FU when none available
system.cpu0.iq.fu_full::IntDiv                      0      0.00%     94.91% # attempts to use FU when none available
system.cpu0.iq.fu_full::FloatAdd                    0      0.00%     94.91% # attempts to use FU when none available
system.cpu0.iq.fu_full::FloatCmp                    0      0.00%     94.91% # attempts to use FU when none available
system.cpu0.iq.fu_full::FloatCvt                    0      0.00%     94.91% # attempts to use FU when none available
system.cpu0.iq.fu_full::FloatMult                   0      0.00%     94.91% # attempts to use FU when none available
system.cpu0.iq.fu_full::FloatMultAcc                0      0.00%     94.91% # attempts to use FU when none available
system.cpu0.iq.fu_full::FloatDiv                    0      0.00%     94.91% # attempts to use FU when none available
system.cpu0.iq.fu_full::FloatMisc                   0      0.00%     94.91% # attempts to use FU when none available
system.cpu0.iq.fu_full::FloatSqrt                   0      0.00%     94.91% # attempts to use FU when none available
system.cpu0.iq.fu_full::SimdAdd                     0      0.00%     94.91% # attempts to use FU when none available
system.cpu0.iq.fu_full::SimdAddAcc                  0      0.00%     94.91% # attempts to use FU when none available
system.cpu0.iq.fu_full::SimdAlu                     0      0.00%     94.91% # attempts to use FU when none available
system.cpu0.iq.fu_full::SimdCmp                     0      0.00%     94.91% # attempts to use FU when none available
system.cpu0.iq.fu_full::SimdCvt                     0      0.00%     94.91% # attempts to use FU when none available
system.cpu0.iq.fu_full::SimdMisc                    0      0.00%     94.91% # attempts to use FU when none available
system.cpu0.iq.fu_full::SimdMult                    0      0.00%     94.91% # attempts to use FU when none available
system.cpu0.iq.fu_full::SimdMultAcc                 0      0.00%     94.91% # attempts to use FU when none available
system.cpu0.iq.fu_full::SimdShift                   0      0.00%     94.91% # attempts to use FU when none available
system.cpu0.iq.fu_full::SimdShiftAcc                0      0.00%     94.91% # attempts to use FU when none available
system.cpu0.iq.fu_full::SimdSqrt                    0      0.00%     94.91% # attempts to use FU when none available
system.cpu0.iq.fu_full::SimdFloatAdd                0      0.00%     94.91% # attempts to use FU when none available
system.cpu0.iq.fu_full::SimdFloatAlu                0      0.00%     94.91% # attempts to use FU when none available
system.cpu0.iq.fu_full::SimdFloatCmp                0      0.00%     94.91% # attempts to use FU when none available
system.cpu0.iq.fu_full::SimdFloatCvt                0      0.00%     94.91% # attempts to use FU when none available
system.cpu0.iq.fu_full::SimdFloatDiv                0      0.00%     94.91% # attempts to use FU when none available
system.cpu0.iq.fu_full::SimdFloatMisc               0      0.00%     94.91% # attempts to use FU when none available
system.cpu0.iq.fu_full::SimdFloatMult               0      0.00%     94.91% # attempts to use FU when none available
system.cpu0.iq.fu_full::SimdFloatMultAcc            0      0.00%     94.91% # attempts to use FU when none available
system.cpu0.iq.fu_full::SimdFloatSqrt               0      0.00%     94.91% # attempts to use FU when none available
system.cpu0.iq.fu_full::MemRead              15802763      3.70%     98.60% # attempts to use FU when none available
system.cpu0.iq.fu_full::MemWrite              5975183      1.40%    100.00% # attempts to use FU when none available
system.cpu0.iq.fu_full::FloatMemRead                0      0.00%    100.00% # attempts to use FU when none available
system.cpu0.iq.fu_full::FloatMemWrite               0      0.00%    100.00% # attempts to use FU when none available
system.cpu0.iq.fu_full::IprAccess                   0      0.00%    100.00% # attempts to use FU when none available
system.cpu0.iq.fu_full::InstPrefetch                0      0.00%    100.00% # attempts to use FU when none available
system.cpu0.iq.FU_type_0::No_OpClass                0      0.00%      0.00% # Type of FU issued
system.cpu0.iq.FU_type_0::IntAlu            510926565     77.98%     77.98% # Type of FU issued
system.cpu0.iq.FU_type_0::IntMult             3744617      0.57%     78.56% # Type of FU issued
system.cpu0.iq.FU_type_0::IntDiv                    0      0.00%     78.56% # Type of FU issued
system.cpu0.iq.FU_type_0::FloatAdd                  0      0.00%     78.56% # Type of FU issued
system.cpu0.iq.FU_type_0::FloatCmp                  0      0.00%     78.56% # Type of FU issued
system.cpu0.iq.FU_type_0::FloatCvt                  0      0.00%     78.56% # Type of FU issued
system.cpu0.iq.FU_type_0::FloatMult                 0      0.00%     78.56% # Type of FU issued
system.cpu0.iq.FU_type_0::FloatMultAcc              0      0.00%     78.56% # Type of FU issued
system.cpu0.iq.FU_type_0::FloatDiv                  0      0.00%     78.56% # Type of FU issued
system.cpu0.iq.FU_type_0::FloatMisc                 0      0.00%     78.56% # Type of FU issued
system.cpu0.iq.FU_type_0::FloatSqrt                 0      0.00%     78.56% # Type of FU issued
system.cpu0.iq.FU_type_0::SimdAdd                   0      0.00%     78.56% # Type of FU issued
system.cpu0.iq.FU_type_0::SimdAddAcc                0      0.00%     78.56% # Type of FU issued
system.cpu0.iq.FU_type_0::SimdAlu                   0      0.00%     78.56% # Type of FU issued
system.cpu0.iq.FU_type_0::SimdCmp                   0      0.00%     78.56% # Type of FU issued
system.cpu0.iq.FU_type_0::SimdCvt                   0      0.00%     78.56% # Type of FU issued
system.cpu0.iq.FU_type_0::SimdMisc                  0      0.00%     78.56% # Type of FU issued
system.cpu0.iq.FU_type_0::SimdMult                  0      0.00%     78.56% # Type of FU issued
system.cpu0.iq.FU_type_0::SimdMultAcc               0      0.00%     78.56% # Type of FU issued
system.cpu0.iq.FU_type_0::SimdShift                 0      0.00%     78.56% # Type of FU issued
system.cpu0.iq.FU_type_0::SimdShiftAcc              0      0.00%     78.56% # Type of FU issued
system.cpu0.iq.FU_type_0::SimdSqrt                  0      0.00%     78.56% # Type of FU issued
system.cpu0.iq.FU_type_0::SimdFloatAdd              0      0.00%     78.56% # Type of FU issued
system.cpu0.iq.FU_type_0::SimdFloatAlu              0      0.00%     78.56% # Type of FU issued
system.cpu0.iq.FU_type_0::SimdFloatCmp              0      0.00%     78.56% # Type of FU issued
system.cpu0.iq.FU_type_0::SimdFloatCvt              0      0.00%     78.56% # Type of FU issued
system.cpu0.iq.FU_type_0::SimdFloatDiv              0      0.00%     78.56% # Type of FU issued
system.cpu0.iq.FU_type_0::SimdFloatMisc         47348      0.01%     78.56% # Type of FU issued
system.cpu0.iq.FU_type_0::SimdFloatMult             0      0.00%     78.56% # Type of FU issued
system.cpu0.iq.FU_type_0::SimdFloatMultAcc            0      0.00%     78.56% # Type of FU issued
system.cpu0.iq.FU_type_0::SimdFloatSqrt             0      0.00%     78.56% # Type of FU issued
system.cpu0.iq.FU_type_0::MemRead            88002137     13.43%     92.00% # Type of FU issued
system.cpu0.iq.FU_type_0::MemWrite           52442404      8.00%    100.00% # Type of FU issued
system.cpu0.iq.FU_type_0::FloatMemRead              0      0.00%    100.00% # Type of FU issued
system.cpu0.iq.FU_type_0::FloatMemWrite            16      0.00%    100.00% # Type of FU issued
system.cpu0.iq.FU_type_0::IprAccess                 0      0.00%    100.00% # Type of FU issued
system.cpu0.iq.FU_type_0::InstPrefetch              0      0.00%    100.00% # Type of FU issued
system.cpu0.iq.FU_type_0::total             655163087                       # Type of FU issued
system.cpu0.iq.rate                          1.200960                       # Inst issue rate
system.cpu0.iq.fu_busy_cnt                  427678202                       # FU busy when requested
system.cpu0.iq.fu_busy_rate                  0.652781                       # FU busy rate (busy events/executed inst)
system.cpu0.iq.int_inst_queue_reads        2293482434                       # Number of integer instruction queue reads
system.cpu0.iq.int_inst_queue_writes        815476137                       # Number of integer instruction queue writes
system.cpu0.iq.int_inst_queue_wakeup_accesses    652897289                       # Number of integer instruction queue wakeup accesses
system.cpu0.iq.fp_inst_queue_reads                 32                       # Number of floating instruction queue reads
system.cpu0.iq.fp_inst_queue_writes                16                       # Number of floating instruction queue writes
system.cpu0.iq.fp_inst_queue_wakeup_accesses           16                       # Number of floating instruction queue wakeup accesses
system.cpu0.iq.int_alu_accesses            1082841273                       # Number of integer alu accesses
system.cpu0.iq.fp_alu_accesses                     16                       # Number of floating point alu accesses
system.cpu0.iew.lsq.thread0.forwLoads        13526867                       # Number of loads that had data forwarded from stores
system.cpu0.iew.lsq.thread0.invAddrLoads            0                       # Number of loads ignored due to an invalid address
system.cpu0.iew.lsq.thread0.squashedLoads      6950617                       # Number of loads squashed
system.cpu0.iew.lsq.thread0.ignoredResponses         2429                       # Number of memory responses ignored because the instruction is squashed
system.cpu0.iew.lsq.thread0.memOrderViolation        10320                       # Number of memory ordering violations
system.cpu0.iew.lsq.thread0.squashedStores      4889172                       # Number of stores squashed
system.cpu0.iew.lsq.thread0.invAddrSwpfs            0                       # Number of software prefetches ignored due to an invalid address
system.cpu0.iew.lsq.thread0.blockedLoads            0                       # Number of blocked loads due to partial load-store forwarding
system.cpu0.iew.lsq.thread0.rescheduledLoads      1023587                       # Number of loads that were rescheduled
system.cpu0.iew.lsq.thread0.cacheBlocked         3796                       # Number of times an access to memory failed due to the cache being blocked
system.cpu0.iew.iewIdleCycles                       0                       # Number of cycles IEW is idle
system.cpu0.iew.iewSquashCycles               2604509                       # Number of cycles IEW is squashing
system.cpu0.iew.iewBlockCycles                9254889                       # Number of cycles IEW is blocking
system.cpu0.iew.iewUnblockCycles               119210                       # Number of cycles IEW is unblocking
system.cpu0.iew.iewDispatchedInsts          729187702                       # Number of instructions dispatched to IQ
system.cpu0.iew.iewDispSquashedInsts           494863                       # Number of squashed instructions skipped by dispatch
system.cpu0.iew.iewDispLoadInsts             90990838                       # Number of dispatched load instructions
system.cpu0.iew.iewDispStoreInsts            56173209                       # Number of dispatched store instructions
system.cpu0.iew.iewDispNonSpecInsts             49098                       # Number of dispatched non-speculative instructions
system.cpu0.iew.iewIQFullEvents                   191                       # Number of times the IQ has become full, causing a stall
system.cpu0.iew.iewLSQFullEvents                 2890                       # Number of times the LSQ has become full, causing a stall
system.cpu0.iew.memOrderViolationEvents         10320                       # Number of memory order violations
system.cpu0.iew.predictedTakenIncorrect       1371997                       # Number of branches that were predicted taken incorrectly
system.cpu0.iew.predictedNotTakenIncorrect      1374396                       # Number of branches that were predicted not taken incorrectly
system.cpu0.iew.branchMispredicts             2746393                       # Number of branch mispredicts detected at execute
system.cpu0.iew.iewExecutedInsts            654398314                       # Number of executed instructions
system.cpu0.iew.iewExecLoadInsts             87729932                       # Number of load instructions executed
system.cpu0.iew.iewExecSquashedInsts           764773                       # Number of squashed instructions skipped in execute
system.cpu0.iew.exec_swp                            0                       # number of swp insts executed
system.cpu0.iew.exec_nop                           94                       # number of nop insts executed
system.cpu0.iew.exec_refs                   140049473                       # number of memory reference insts executed
system.cpu0.iew.exec_branches                99712572                       # Number of branches executed
system.cpu0.iew.exec_stores                  52319541                       # Number of stores executed
system.cpu0.iew.exec_rate                    1.199558                       # Inst execution rate
system.cpu0.iew.wb_sent                     653014620                       # cumulative count of insts sent to commit
system.cpu0.iew.wb_count                    652897305                       # cumulative count of insts written-back
system.cpu0.iew.wb_producers                488966516                       # num instructions producing a value
system.cpu0.iew.wb_consumers               1168472289                       # num instructions consuming a value
system.cpu0.iew.wb_rate                      1.196806                       # insts written-back per cycle
system.cpu0.iew.wb_fanout                    0.418467                       # average fanout of values written-back
system.cpu0.commit.commitSquashedInsts       86279165                       # The number of squashed insts skipped by commit
system.cpu0.commit.commitNonSpecStalls         105630                       # The number of times commit has been forced to stall to communicate backwards
system.cpu0.commit.branchMispredicts          2584968                       # The number of times a branch was mispredicted
system.cpu0.commit.committed_per_cycle::samples    533632476                       # Number of insts commited each cycle
system.cpu0.commit.committed_per_cycle::mean     1.204779                       # Number of insts commited each cycle
system.cpu0.commit.committed_per_cycle::stdev     1.041494                       # Number of insts commited each cycle
system.cpu0.commit.committed_per_cycle::underflows            0      0.00%      0.00% # Number of insts commited each cycle
system.cpu0.commit.committed_per_cycle::0     55073218     10.32%     10.32% # Number of insts commited each cycle
system.cpu0.commit.committed_per_cycle::1    396733142     74.35%     84.67% # Number of insts commited each cycle
system.cpu0.commit.committed_per_cycle::2     48906525      9.16%     93.83% # Number of insts commited each cycle
system.cpu0.commit.committed_per_cycle::3     14444852      2.71%     96.54% # Number of insts commited each cycle
system.cpu0.commit.committed_per_cycle::4      6277173      1.18%     97.71% # Number of insts commited each cycle
system.cpu0.commit.committed_per_cycle::5      1262777      0.24%     97.95% # Number of insts commited each cycle
system.cpu0.commit.committed_per_cycle::6      3645442      0.68%     98.63% # Number of insts commited each cycle
system.cpu0.commit.committed_per_cycle::7      6581412      1.23%     99.87% # Number of insts commited each cycle
system.cpu0.commit.committed_per_cycle::8       707935      0.13%    100.00% # Number of insts commited each cycle
system.cpu0.commit.committed_per_cycle::overflows            0      0.00%    100.00% # Number of insts commited each cycle
system.cpu0.commit.committed_per_cycle::min_value            0                       # Number of insts commited each cycle
system.cpu0.commit.committed_per_cycle::max_value            8                       # Number of insts commited each cycle
system.cpu0.commit.committed_per_cycle::total    533632476                       # Number of insts commited each cycle
system.cpu0.commit.committedInsts           568667623                       # Number of instructions committed
system.cpu0.commit.committedOps             642909341                       # Number of ops (including micro ops) committed
system.cpu0.commit.swp_count                        0                       # Number of s/w prefetches committed
system.cpu0.commit.refs                     135324258                       # Number of memory references committed
system.cpu0.commit.loads                     84040221                       # Number of loads committed
system.cpu0.commit.membars                      57488                       # Number of memory barriers committed
system.cpu0.commit.branches                  98708087                       # Number of branches committed
system.cpu0.commit.fp_insts                        16                       # Number of committed floating point instructions.
system.cpu0.commit.int_insts                587305356                       # Number of committed integer instructions.
system.cpu0.commit.function_calls            18093734                       # Number of function calls committed.
system.cpu0.commit.op_class_0::No_OpClass            0      0.00%      0.00% # Class of committed instruction
system.cpu0.commit.op_class_0::IntAlu       503928746     78.38%     78.38% # Class of committed instruction
system.cpu0.commit.op_class_0::IntMult        3608989      0.56%     78.94% # Class of committed instruction
system.cpu0.commit.op_class_0::IntDiv               0      0.00%     78.94% # Class of committed instruction
system.cpu0.commit.op_class_0::FloatAdd             0      0.00%     78.94% # Class of committed instruction
system.cpu0.commit.op_class_0::FloatCmp             0      0.00%     78.94% # Class of committed instruction
system.cpu0.commit.op_class_0::FloatCvt             0      0.00%     78.94% # Class of committed instruction
system.cpu0.commit.op_class_0::FloatMult            0      0.00%     78.94% # Class of committed instruction
system.cpu0.commit.op_class_0::FloatMultAcc            0      0.00%     78.94% # Class of committed instruction
system.cpu0.commit.op_class_0::FloatDiv             0      0.00%     78.94% # Class of committed instruction
system.cpu0.commit.op_class_0::FloatMisc            0      0.00%     78.94% # Class of committed instruction
system.cpu0.commit.op_class_0::FloatSqrt            0      0.00%     78.94% # Class of committed instruction
system.cpu0.commit.op_class_0::SimdAdd              0      0.00%     78.94% # Class of committed instruction
system.cpu0.commit.op_class_0::SimdAddAcc            0      0.00%     78.94% # Class of committed instruction
system.cpu0.commit.op_class_0::SimdAlu              0      0.00%     78.94% # Class of committed instruction
system.cpu0.commit.op_class_0::SimdCmp              0      0.00%     78.94% # Class of committed instruction
system.cpu0.commit.op_class_0::SimdCvt              0      0.00%     78.94% # Class of committed instruction
system.cpu0.commit.op_class_0::SimdMisc             0      0.00%     78.94% # Class of committed instruction
system.cpu0.commit.op_class_0::SimdMult             0      0.00%     78.94% # Class of committed instruction
system.cpu0.commit.op_class_0::SimdMultAcc            0      0.00%     78.94% # Class of committed instruction
system.cpu0.commit.op_class_0::SimdShift            0      0.00%     78.94% # Class of committed instruction
system.cpu0.commit.op_class_0::SimdShiftAcc            0      0.00%     78.94% # Class of committed instruction
system.cpu0.commit.op_class_0::SimdSqrt             0      0.00%     78.94% # Class of committed instruction
system.cpu0.commit.op_class_0::SimdFloatAdd            0      0.00%     78.94% # Class of committed instruction
system.cpu0.commit.op_class_0::SimdFloatAlu            0      0.00%     78.94% # Class of committed instruction
system.cpu0.commit.op_class_0::SimdFloatCmp            0      0.00%     78.94% # Class of committed instruction
system.cpu0.commit.op_class_0::SimdFloatCvt            0      0.00%     78.94% # Class of committed instruction
system.cpu0.commit.op_class_0::SimdFloatDiv            0      0.00%     78.94% # Class of committed instruction
system.cpu0.commit.op_class_0::SimdFloatMisc        47348      0.01%     78.95% # Class of committed instruction
system.cpu0.commit.op_class_0::SimdFloatMult            0      0.00%     78.95% # Class of committed instruction
system.cpu0.commit.op_class_0::SimdFloatMultAcc            0      0.00%     78.95% # Class of committed instruction
system.cpu0.commit.op_class_0::SimdFloatSqrt            0      0.00%     78.95% # Class of committed instruction
system.cpu0.commit.op_class_0::MemRead       84040221     13.07%     92.02% # Class of committed instruction
system.cpu0.commit.op_class_0::MemWrite      51284021      7.98%    100.00% # Class of committed instruction
system.cpu0.commit.op_class_0::FloatMemRead            0      0.00%    100.00% # Class of committed instruction
system.cpu0.commit.op_class_0::FloatMemWrite           16      0.00%    100.00% # Class of committed instruction
system.cpu0.commit.op_class_0::IprAccess            0      0.00%    100.00% # Class of committed instruction
system.cpu0.commit.op_class_0::InstPrefetch            0      0.00%    100.00% # Class of committed instruction
system.cpu0.commit.op_class_0::total        642909341                       # Class of committed instruction
system.cpu0.commit.bw_lim_events               707935                       # number cycles where commit BW limit reached
system.cpu0.rob.rob_reads                  1261984990                       # The number of ROB reads
system.cpu0.rob.rob_writes                 1470227048                       # The number of ROB writes
system.cpu0.timesIdled                           2851                       # Number of times that the entire CPU went into an idle state and unscheduled itself
system.cpu0.idleCycles                          51351                       # Total number of cycles that the CPU has spent unscheduled due to idling
system.cpu0.committedInsts                  568667623                       # Number of Instructions Simulated
system.cpu0.committedOps                    642909341                       # Number of Ops (including micro ops) Simulated
system.cpu0.cpi                              0.959318                       # CPI: Cycles Per Instruction
system.cpu0.cpi_total                        0.959318                       # CPI: Total CPI of All Threads
system.cpu0.ipc                              1.042407                       # IPC: Instructions Per Cycle
system.cpu0.ipc_total                        1.042407                       # IPC: Total IPC of All Threads
system.cpu0.int_regfile_reads               776116436                       # number of integer regfile reads
system.cpu0.int_regfile_writes              467451395                       # number of integer regfile writes
system.cpu0.fp_regfile_reads                       16                       # number of floating regfile reads
system.cpu0.cc_regfile_reads               2248663965                       # number of cc regfile reads
system.cpu0.cc_regfile_writes               336568154                       # number of cc regfile writes
system.cpu0.misc_regfile_reads              137547196                       # number of misc regfile reads
system.cpu0.misc_regfile_writes                 76545                       # number of misc regfile writes
system.cpu0.dcache.tags.pwrStateResidencyTicks::UNDEFINED 545532989000                       # Cumulative time (in ticks) in various power states
system.cpu0.dcache.tags.replacements             7552                       # number of replacements
system.cpu0.dcache.tags.tagsinuse          510.339374                       # Cycle average of tags in use
system.cpu0.dcache.tags.total_refs          121560778                       # Total number of references to valid blocks.
system.cpu0.dcache.tags.sampled_refs             8064                       # Sample count of references to valid blocks.
system.cpu0.dcache.tags.avg_refs         15074.501240                       # Average number of references to valid blocks.
system.cpu0.dcache.tags.warmup_cycle      14183059500                       # Cycle when the warmup percentage was hit.
system.cpu0.dcache.tags.occ_blocks::cpu0.data   510.339374                       # Average occupied blocks per requestor
system.cpu0.dcache.tags.occ_percent::cpu0.data     0.996757                       # Average percentage of cache occupancy
system.cpu0.dcache.tags.occ_percent::total     0.996757                       # Average percentage of cache occupancy
system.cpu0.dcache.tags.occ_task_id_blocks::1024          512                       # Occupied blocks per task id
system.cpu0.dcache.tags.age_task_id_blocks_1024::0           26                       # Occupied blocks per task id
system.cpu0.dcache.tags.age_task_id_blocks_1024::1           27                       # Occupied blocks per task id
system.cpu0.dcache.tags.age_task_id_blocks_1024::2           58                       # Occupied blocks per task id
system.cpu0.dcache.tags.age_task_id_blocks_1024::3          143                       # Occupied blocks per task id
system.cpu0.dcache.tags.age_task_id_blocks_1024::4          258                       # Occupied blocks per task id
system.cpu0.dcache.tags.occ_task_id_percent::1024            1                       # Percentage of cache occupancy per task id
system.cpu0.dcache.tags.tag_accesses        972629896                       # Number of tag accesses
system.cpu0.dcache.tags.data_accesses       972629896                       # Number of data accesses
system.cpu0.dcache.pwrStateResidencyTicks::UNDEFINED 545532989000                       # Cumulative time (in ticks) in various power states
system.cpu0.dcache.ReadReq_hits::cpu0.data     70410663                       # number of ReadReq hits
system.cpu0.dcache.ReadReq_hits::total       70410663                       # number of ReadReq hits
system.cpu0.dcache.WriteReq_hits::cpu0.data     51073596                       # number of WriteReq hits
system.cpu0.dcache.WriteReq_hits::total      51073596                       # number of WriteReq hits
system.cpu0.dcache.LoadLockedReq_hits::cpu0.data        38270                       # number of LoadLockedReq hits
system.cpu0.dcache.LoadLockedReq_hits::total        38270                       # number of LoadLockedReq hits
system.cpu0.dcache.StoreCondReq_hits::cpu0.data        38249                       # number of StoreCondReq hits
system.cpu0.dcache.StoreCondReq_hits::total        38249                       # number of StoreCondReq hits
system.cpu0.dcache.demand_hits::cpu0.data    121484259                       # number of demand (read+write) hits
system.cpu0.dcache.demand_hits::total       121484259                       # number of demand (read+write) hits
system.cpu0.dcache.overall_hits::cpu0.data    121484259                       # number of overall hits
system.cpu0.dcache.overall_hits::total      121484259                       # number of overall hits
system.cpu0.dcache.ReadReq_misses::cpu0.data         6977                       # number of ReadReq misses
system.cpu0.dcache.ReadReq_misses::total         6977                       # number of ReadReq misses
system.cpu0.dcache.WriteReq_misses::cpu0.data         9957                       # number of WriteReq misses
system.cpu0.dcache.WriteReq_misses::total         9957                       # number of WriteReq misses
system.cpu0.dcache.LoadLockedReq_misses::cpu0.data           17                       # number of LoadLockedReq misses
system.cpu0.dcache.LoadLockedReq_misses::total           17                       # number of LoadLockedReq misses
system.cpu0.dcache.demand_misses::cpu0.data        16934                       # number of demand (read+write) misses
system.cpu0.dcache.demand_misses::total         16934                       # number of demand (read+write) misses
system.cpu0.dcache.overall_misses::cpu0.data        16934                       # number of overall misses
system.cpu0.dcache.overall_misses::total        16934                       # number of overall misses
system.cpu0.dcache.ReadReq_miss_latency::cpu0.data    196653000                       # number of ReadReq miss cycles
system.cpu0.dcache.ReadReq_miss_latency::total    196653000                       # number of ReadReq miss cycles
system.cpu0.dcache.WriteReq_miss_latency::cpu0.data    511542593                       # number of WriteReq miss cycles
system.cpu0.dcache.WriteReq_miss_latency::total    511542593                       # number of WriteReq miss cycles
system.cpu0.dcache.LoadLockedReq_miss_latency::cpu0.data       519000                       # number of LoadLockedReq miss cycles
system.cpu0.dcache.LoadLockedReq_miss_latency::total       519000                       # number of LoadLockedReq miss cycles
system.cpu0.dcache.demand_miss_latency::cpu0.data    708195593                       # number of demand (read+write) miss cycles
system.cpu0.dcache.demand_miss_latency::total    708195593                       # number of demand (read+write) miss cycles
system.cpu0.dcache.overall_miss_latency::cpu0.data    708195593                       # number of overall miss cycles
system.cpu0.dcache.overall_miss_latency::total    708195593                       # number of overall miss cycles
system.cpu0.dcache.ReadReq_accesses::cpu0.data     70417640                       # number of ReadReq accesses(hits+misses)
system.cpu0.dcache.ReadReq_accesses::total     70417640                       # number of ReadReq accesses(hits+misses)
system.cpu0.dcache.WriteReq_accesses::cpu0.data     51083553                       # number of WriteReq accesses(hits+misses)
system.cpu0.dcache.WriteReq_accesses::total     51083553                       # number of WriteReq accesses(hits+misses)
system.cpu0.dcache.LoadLockedReq_accesses::cpu0.data        38287                       # number of LoadLockedReq accesses(hits+misses)
system.cpu0.dcache.LoadLockedReq_accesses::total        38287                       # number of LoadLockedReq accesses(hits+misses)
system.cpu0.dcache.StoreCondReq_accesses::cpu0.data        38249                       # number of StoreCondReq accesses(hits+misses)
system.cpu0.dcache.StoreCondReq_accesses::total        38249                       # number of StoreCondReq accesses(hits+misses)
system.cpu0.dcache.demand_accesses::cpu0.data    121501193                       # number of demand (read+write) accesses
system.cpu0.dcache.demand_accesses::total    121501193                       # number of demand (read+write) accesses
system.cpu0.dcache.overall_accesses::cpu0.data    121501193                       # number of overall (read+write) accesses
system.cpu0.dcache.overall_accesses::total    121501193                       # number of overall (read+write) accesses
system.cpu0.dcache.ReadReq_miss_rate::cpu0.data     0.000099                       # miss rate for ReadReq accesses
system.cpu0.dcache.ReadReq_miss_rate::total     0.000099                       # miss rate for ReadReq accesses
system.cpu0.dcache.WriteReq_miss_rate::cpu0.data     0.000195                       # miss rate for WriteReq accesses
system.cpu0.dcache.WriteReq_miss_rate::total     0.000195                       # miss rate for WriteReq accesses
system.cpu0.dcache.LoadLockedReq_miss_rate::cpu0.data     0.000444                       # miss rate for LoadLockedReq accesses
system.cpu0.dcache.LoadLockedReq_miss_rate::total     0.000444                       # miss rate for LoadLockedReq accesses
system.cpu0.dcache.demand_miss_rate::cpu0.data     0.000139                       # miss rate for demand accesses
system.cpu0.dcache.demand_miss_rate::total     0.000139                       # miss rate for demand accesses
system.cpu0.dcache.overall_miss_rate::cpu0.data     0.000139                       # miss rate for overall accesses
system.cpu0.dcache.overall_miss_rate::total     0.000139                       # miss rate for overall accesses
system.cpu0.dcache.ReadReq_avg_miss_latency::cpu0.data 28185.896517                       # average ReadReq miss latency
system.cpu0.dcache.ReadReq_avg_miss_latency::total 28185.896517                       # average ReadReq miss latency
system.cpu0.dcache.WriteReq_avg_miss_latency::cpu0.data 51375.172542                       # average WriteReq miss latency
system.cpu0.dcache.WriteReq_avg_miss_latency::total 51375.172542                       # average WriteReq miss latency
system.cpu0.dcache.LoadLockedReq_avg_miss_latency::cpu0.data 30529.411765                       # average LoadLockedReq miss latency
system.cpu0.dcache.LoadLockedReq_avg_miss_latency::total 30529.411765                       # average LoadLockedReq miss latency
system.cpu0.dcache.demand_avg_miss_latency::cpu0.data 41820.927897                       # average overall miss latency
system.cpu0.dcache.demand_avg_miss_latency::total 41820.927897                       # average overall miss latency
system.cpu0.dcache.overall_avg_miss_latency::cpu0.data 41820.927897                       # average overall miss latency
system.cpu0.dcache.overall_avg_miss_latency::total 41820.927897                       # average overall miss latency
system.cpu0.dcache.blocked_cycles::no_mshrs        16177                       # number of cycles access was blocked
system.cpu0.dcache.blocked_cycles::no_targets            0                       # number of cycles access was blocked
system.cpu0.dcache.blocked::no_mshrs              798                       # number of cycles access was blocked
system.cpu0.dcache.blocked::no_targets              0                       # number of cycles access was blocked
system.cpu0.dcache.avg_blocked_cycles::no_mshrs    20.271930                       # average number of cycles each access was blocked
system.cpu0.dcache.avg_blocked_cycles::no_targets          nan                       # average number of cycles each access was blocked
system.cpu0.dcache.writebacks::writebacks         4863                       # number of writebacks
system.cpu0.dcache.writebacks::total             4863                       # number of writebacks
system.cpu0.dcache.ReadReq_mshr_hits::cpu0.data         3452                       # number of ReadReq MSHR hits
system.cpu0.dcache.ReadReq_mshr_hits::total         3452                       # number of ReadReq MSHR hits
system.cpu0.dcache.WriteReq_mshr_hits::cpu0.data         5421                       # number of WriteReq MSHR hits
system.cpu0.dcache.WriteReq_mshr_hits::total         5421                       # number of WriteReq MSHR hits
system.cpu0.dcache.LoadLockedReq_mshr_hits::cpu0.data           14                       # number of LoadLockedReq MSHR hits
system.cpu0.dcache.LoadLockedReq_mshr_hits::total           14                       # number of LoadLockedReq MSHR hits
system.cpu0.dcache.demand_mshr_hits::cpu0.data         8873                       # number of demand (read+write) MSHR hits
system.cpu0.dcache.demand_mshr_hits::total         8873                       # number of demand (read+write) MSHR hits
system.cpu0.dcache.overall_mshr_hits::cpu0.data         8873                       # number of overall MSHR hits
system.cpu0.dcache.overall_mshr_hits::total         8873                       # number of overall MSHR hits
system.cpu0.dcache.ReadReq_mshr_misses::cpu0.data         3525                       # number of ReadReq MSHR misses
system.cpu0.dcache.ReadReq_mshr_misses::total         3525                       # number of ReadReq MSHR misses
system.cpu0.dcache.WriteReq_mshr_misses::cpu0.data         4536                       # number of WriteReq MSHR misses
system.cpu0.dcache.WriteReq_mshr_misses::total         4536                       # number of WriteReq MSHR misses
system.cpu0.dcache.LoadLockedReq_mshr_misses::cpu0.data            3                       # number of LoadLockedReq MSHR misses
system.cpu0.dcache.LoadLockedReq_mshr_misses::total            3                       # number of LoadLockedReq MSHR misses
system.cpu0.dcache.demand_mshr_misses::cpu0.data         8061                       # number of demand (read+write) MSHR misses
system.cpu0.dcache.demand_mshr_misses::total         8061                       # number of demand (read+write) MSHR misses
system.cpu0.dcache.overall_mshr_misses::cpu0.data         8061                       # number of overall MSHR misses
system.cpu0.dcache.overall_mshr_misses::total         8061                       # number of overall MSHR misses
system.cpu0.dcache.ReadReq_mshr_miss_latency::cpu0.data     89274500                       # number of ReadReq MSHR miss cycles
system.cpu0.dcache.ReadReq_mshr_miss_latency::total     89274500                       # number of ReadReq MSHR miss cycles
system.cpu0.dcache.WriteReq_mshr_miss_latency::cpu0.data    244329771                       # number of WriteReq MSHR miss cycles
system.cpu0.dcache.WriteReq_mshr_miss_latency::total    244329771                       # number of WriteReq MSHR miss cycles
system.cpu0.dcache.LoadLockedReq_mshr_miss_latency::cpu0.data       141000                       # number of LoadLockedReq MSHR miss cycles
system.cpu0.dcache.LoadLockedReq_mshr_miss_latency::total       141000                       # number of LoadLockedReq MSHR miss cycles
system.cpu0.dcache.demand_mshr_miss_latency::cpu0.data    333604271                       # number of demand (read+write) MSHR miss cycles
system.cpu0.dcache.demand_mshr_miss_latency::total    333604271                       # number of demand (read+write) MSHR miss cycles
system.cpu0.dcache.overall_mshr_miss_latency::cpu0.data    333604271                       # number of overall MSHR miss cycles
system.cpu0.dcache.overall_mshr_miss_latency::total    333604271                       # number of overall MSHR miss cycles
system.cpu0.dcache.ReadReq_mshr_miss_rate::cpu0.data     0.000050                       # mshr miss rate for ReadReq accesses
system.cpu0.dcache.ReadReq_mshr_miss_rate::total     0.000050                       # mshr miss rate for ReadReq accesses
system.cpu0.dcache.WriteReq_mshr_miss_rate::cpu0.data     0.000089                       # mshr miss rate for WriteReq accesses
system.cpu0.dcache.WriteReq_mshr_miss_rate::total     0.000089                       # mshr miss rate for WriteReq accesses
system.cpu0.dcache.LoadLockedReq_mshr_miss_rate::cpu0.data     0.000078                       # mshr miss rate for LoadLockedReq accesses
system.cpu0.dcache.LoadLockedReq_mshr_miss_rate::total     0.000078                       # mshr miss rate for LoadLockedReq accesses
system.cpu0.dcache.demand_mshr_miss_rate::cpu0.data     0.000066                       # mshr miss rate for demand accesses
system.cpu0.dcache.demand_mshr_miss_rate::total     0.000066                       # mshr miss rate for demand accesses
system.cpu0.dcache.overall_mshr_miss_rate::cpu0.data     0.000066                       # mshr miss rate for overall accesses
system.cpu0.dcache.overall_mshr_miss_rate::total     0.000066                       # mshr miss rate for overall accesses
system.cpu0.dcache.ReadReq_avg_mshr_miss_latency::cpu0.data 25326.099291                       # average ReadReq mshr miss latency
system.cpu0.dcache.ReadReq_avg_mshr_miss_latency::total 25326.099291                       # average ReadReq mshr miss latency
system.cpu0.dcache.WriteReq_avg_mshr_miss_latency::cpu0.data 53864.587963                       # average WriteReq mshr miss latency
system.cpu0.dcache.WriteReq_avg_mshr_miss_latency::total 53864.587963                       # average WriteReq mshr miss latency
system.cpu0.dcache.LoadLockedReq_avg_mshr_miss_latency::cpu0.data        47000                       # average LoadLockedReq mshr miss latency
system.cpu0.dcache.LoadLockedReq_avg_mshr_miss_latency::total        47000                       # average LoadLockedReq mshr miss latency
system.cpu0.dcache.demand_avg_mshr_miss_latency::cpu0.data 41384.973452                       # average overall mshr miss latency
system.cpu0.dcache.demand_avg_mshr_miss_latency::total 41384.973452                       # average overall mshr miss latency
system.cpu0.dcache.overall_avg_mshr_miss_latency::cpu0.data 41384.973452                       # average overall mshr miss latency
system.cpu0.dcache.overall_avg_mshr_miss_latency::total 41384.973452                       # average overall mshr miss latency
system.cpu0.icache.tags.pwrStateResidencyTicks::UNDEFINED 545532989000                       # Cumulative time (in ticks) in various power states
system.cpu0.icache.tags.replacements            84651                       # number of replacements
system.cpu0.icache.tags.tagsinuse          511.753985                       # Cycle average of tags in use
system.cpu0.icache.tags.total_refs           93567480                       # Total number of references to valid blocks.
system.cpu0.icache.tags.sampled_refs            85163                       # Sample count of references to valid blocks.
system.cpu0.icache.tags.avg_refs          1098.686988                       # Average number of references to valid blocks.
system.cpu0.icache.tags.warmup_cycle      15579222500                       # Cycle when the warmup percentage was hit.
system.cpu0.icache.tags.occ_blocks::cpu0.inst   511.753985                       # Average occupied blocks per requestor
system.cpu0.icache.tags.occ_percent::cpu0.inst     0.999520                       # Average percentage of cache occupancy
system.cpu0.icache.tags.occ_percent::total     0.999520                       # Average percentage of cache occupancy
system.cpu0.icache.tags.occ_task_id_blocks::1024          512                       # Occupied blocks per task id
system.cpu0.icache.tags.age_task_id_blocks_1024::0           67                       # Occupied blocks per task id
system.cpu0.icache.tags.age_task_id_blocks_1024::1          204                       # Occupied blocks per task id
system.cpu0.icache.tags.age_task_id_blocks_1024::2           88                       # Occupied blocks per task id
system.cpu0.icache.tags.age_task_id_blocks_1024::3           62                       # Occupied blocks per task id
system.cpu0.icache.tags.age_task_id_blocks_1024::4           91                       # Occupied blocks per task id
system.cpu0.icache.tags.occ_task_id_percent::1024            1                       # Percentage of cache occupancy per task id
system.cpu0.icache.tags.tag_accesses        374701955                       # Number of tag accesses
system.cpu0.icache.tags.data_accesses       374701955                       # Number of data accesses
system.cpu0.icache.pwrStateResidencyTicks::UNDEFINED 545532989000                       # Cumulative time (in ticks) in various power states
system.cpu0.icache.ReadReq_hits::cpu0.inst     93567480                       # number of ReadReq hits
system.cpu0.icache.ReadReq_hits::total       93567480                       # number of ReadReq hits
system.cpu0.icache.demand_hits::cpu0.inst     93567480                       # number of demand (read+write) hits
system.cpu0.icache.demand_hits::total        93567480                       # number of demand (read+write) hits
system.cpu0.icache.overall_hits::cpu0.inst     93567480                       # number of overall hits
system.cpu0.icache.overall_hits::total       93567480                       # number of overall hits
system.cpu0.icache.ReadReq_misses::cpu0.inst        86718                       # number of ReadReq misses
system.cpu0.icache.ReadReq_misses::total        86718                       # number of ReadReq misses
system.cpu0.icache.demand_misses::cpu0.inst        86718                       # number of demand (read+write) misses
system.cpu0.icache.demand_misses::total         86718                       # number of demand (read+write) misses
system.cpu0.icache.overall_misses::cpu0.inst        86718                       # number of overall misses
system.cpu0.icache.overall_misses::total        86718                       # number of overall misses
system.cpu0.icache.ReadReq_miss_latency::cpu0.inst   1398647000                       # number of ReadReq miss cycles
system.cpu0.icache.ReadReq_miss_latency::total   1398647000                       # number of ReadReq miss cycles
system.cpu0.icache.demand_miss_latency::cpu0.inst   1398647000                       # number of demand (read+write) miss cycles
system.cpu0.icache.demand_miss_latency::total   1398647000                       # number of demand (read+write) miss cycles
system.cpu0.icache.overall_miss_latency::cpu0.inst   1398647000                       # number of overall miss cycles
system.cpu0.icache.overall_miss_latency::total   1398647000                       # number of overall miss cycles
system.cpu0.icache.ReadReq_accesses::cpu0.inst     93654198                       # number of ReadReq accesses(hits+misses)
system.cpu0.icache.ReadReq_accesses::total     93654198                       # number of ReadReq accesses(hits+misses)
system.cpu0.icache.demand_accesses::cpu0.inst     93654198                       # number of demand (read+write) accesses
system.cpu0.icache.demand_accesses::total     93654198                       # number of demand (read+write) accesses
system.cpu0.icache.overall_accesses::cpu0.inst     93654198                       # number of overall (read+write) accesses
system.cpu0.icache.overall_accesses::total     93654198                       # number of overall (read+write) accesses
system.cpu0.icache.ReadReq_miss_rate::cpu0.inst     0.000926                       # miss rate for ReadReq accesses
system.cpu0.icache.ReadReq_miss_rate::total     0.000926                       # miss rate for ReadReq accesses
system.cpu0.icache.demand_miss_rate::cpu0.inst     0.000926                       # miss rate for demand accesses
system.cpu0.icache.demand_miss_rate::total     0.000926                       # miss rate for demand accesses
system.cpu0.icache.overall_miss_rate::cpu0.inst     0.000926                       # miss rate for overall accesses
system.cpu0.icache.overall_miss_rate::total     0.000926                       # miss rate for overall accesses
system.cpu0.icache.ReadReq_avg_miss_latency::cpu0.inst 16128.681473                       # average ReadReq miss latency
system.cpu0.icache.ReadReq_avg_miss_latency::total 16128.681473                       # average ReadReq miss latency
system.cpu0.icache.demand_avg_miss_latency::cpu0.inst 16128.681473                       # average overall miss latency
system.cpu0.icache.demand_avg_miss_latency::total 16128.681473                       # average overall miss latency
system.cpu0.icache.overall_avg_miss_latency::cpu0.inst 16128.681473                       # average overall miss latency
system.cpu0.icache.overall_avg_miss_latency::total 16128.681473                       # average overall miss latency
system.cpu0.icache.blocked_cycles::no_mshrs           83                       # number of cycles access was blocked
system.cpu0.icache.blocked_cycles::no_targets            0                       # number of cycles access was blocked
system.cpu0.icache.blocked::no_mshrs                5                       # number of cycles access was blocked
system.cpu0.icache.blocked::no_targets              0                       # number of cycles access was blocked
system.cpu0.icache.avg_blocked_cycles::no_mshrs    16.600000                       # average number of cycles each access was blocked
system.cpu0.icache.avg_blocked_cycles::no_targets          nan                       # average number of cycles each access was blocked
system.cpu0.icache.writebacks::writebacks        84651                       # number of writebacks
system.cpu0.icache.writebacks::total            84651                       # number of writebacks
system.cpu0.icache.ReadReq_mshr_hits::cpu0.inst         1555                       # number of ReadReq MSHR hits
system.cpu0.icache.ReadReq_mshr_hits::total         1555                       # number of ReadReq MSHR hits
system.cpu0.icache.demand_mshr_hits::cpu0.inst         1555                       # number of demand (read+write) MSHR hits
system.cpu0.icache.demand_mshr_hits::total         1555                       # number of demand (read+write) MSHR hits
system.cpu0.icache.overall_mshr_hits::cpu0.inst         1555                       # number of overall MSHR hits
system.cpu0.icache.overall_mshr_hits::total         1555                       # number of overall MSHR hits
system.cpu0.icache.ReadReq_mshr_misses::cpu0.inst        85163                       # number of ReadReq MSHR misses
system.cpu0.icache.ReadReq_mshr_misses::total        85163                       # number of ReadReq MSHR misses
system.cpu0.icache.demand_mshr_misses::cpu0.inst        85163                       # number of demand (read+write) MSHR misses
[...]
system.l2.ReadExReq_avg_miss_latency::cpu0.data 61647.196907                       # average ReadExReq miss latency
system.l2.ReadExReq_avg_miss_latency::total 61647.196907                       # average ReadExReq miss latency
system.l2.ReadCleanReq_avg_miss_latency::cpu0.inst 61189.804772                       # average ReadCleanReq miss latency
system.l2.ReadCleanReq_avg_miss_latency::total 61189.804772                       # average ReadCleanReq miss latency
system.l2.ReadSharedReq_avg_miss_latency::cpu0.data 61252.364066                       # average ReadSharedReq miss latency
system.l2.ReadSharedReq_avg_miss_latency::total 61252.364066                       # average ReadSharedReq miss latency
system.l2.demand_avg_miss_latency::cpu0.inst 61189.804772                       # average overall miss latency
system.l2.demand_avg_miss_latency::cpu0.data 61572.419969                       # average overall miss latency
system.l2.demand_avg_miss_latency::total 61460.624307                       # average overall miss latency
system.l2.overall_avg_miss_latency::cpu0.inst 61189.804772                       # average overall miss latency
system.l2.overall_avg_miss_latency::cpu0.data 61572.419969                       # average overall miss latency
system.l2.overall_avg_miss_latency::total 61460.624307                       # average overall miss latency
system.l2.blocked_cycles::no_mshrs                  0                       # number of cycles access was blocked
system.l2.blocked_cycles::no_targets                0                       # number of cycles access was blocked
system.l2.blocked::no_mshrs                         0                       # number of cycles access was blocked
system.l2.blocked::no_targets                       0                       # number of cycles access was blocked
system.l2.avg_blocked_cycles::no_mshrs            nan                       # average number of cycles each access was blocked
system.l2.avg_blocked_cycles::no_targets          nan                       # average number of cycles each access was blocked
system.l2.writebacks::writebacks                 1098                       # number of writebacks
system.l2.writebacks::total                      1098                       # number of writebacks
system.l2.ReadCleanReq_mshr_hits::cpu0.inst            5                       # number of ReadCleanReq MSHR hits
system.l2.ReadCleanReq_mshr_hits::total             5                       # number of ReadCleanReq MSHR hits
system.l2.ReadSharedReq_mshr_hits::cpu0.data           21                       # number of ReadSharedReq MSHR hits
system.l2.ReadSharedReq_mshr_hits::total           21                       # number of ReadSharedReq MSHR hits
system.l2.demand_mshr_hits::cpu0.inst               5                       # number of demand (read+write) MSHR hits
system.l2.demand_mshr_hits::cpu0.data              21                       # number of demand (read+write) MSHR hits
system.l2.demand_mshr_hits::total                  26                       # number of demand (read+write) MSHR hits
system.l2.overall_mshr_hits::cpu0.inst              5                       # number of overall MSHR hits
system.l2.overall_mshr_hits::cpu0.data             21                       # number of overall MSHR hits
system.l2.overall_mshr_hits::total                 26                       # number of overall MSHR hits
system.l2.CleanEvict_mshr_misses::writebacks            7                       # number of CleanEvict MSHR misses
system.l2.CleanEvict_mshr_misses::total             7                       # number of CleanEvict MSHR misses
system.l2.ReadExReq_mshr_misses::cpu0.data         3621                       # number of ReadExReq MSHR misses
system.l2.ReadExReq_mshr_misses::total           3621                       # number of ReadExReq MSHR misses
system.l2.ReadCleanReq_mshr_misses::cpu0.inst         1839                       # number of ReadCleanReq MSHR misses
system.l2.ReadCleanReq_mshr_misses::total         1839                       # number of ReadCleanReq MSHR misses
system.l2.ReadSharedReq_mshr_misses::cpu0.data          825                       # number of ReadSharedReq MSHR misses
system.l2.ReadSharedReq_mshr_misses::total          825                       # number of ReadSharedReq MSHR misses
system.l2.demand_mshr_misses::cpu0.inst          1839                       # number of demand (read+write) MSHR misses
system.l2.demand_mshr_misses::cpu0.data          4446                       # number of demand (read+write) MSHR misses
system.l2.demand_mshr_misses::total              6285                       # number of demand (read+write) MSHR misses
system.l2.overall_mshr_misses::cpu0.inst         1839                       # number of overall MSHR misses
system.l2.overall_mshr_misses::cpu0.data         4446                       # number of overall MSHR misses
system.l2.overall_mshr_misses::total             6285                       # number of overall MSHR misses
system.l2.ReadExReq_mshr_miss_latency::cpu0.data    187014500                       # number of ReadExReq MSHR miss cycles
system.l2.ReadExReq_mshr_miss_latency::total    187014500                       # number of ReadExReq MSHR miss cycles
system.l2.ReadCleanReq_mshr_miss_latency::cpu0.inst     94158000                       # number of ReadCleanReq MSHR miss cycles
system.l2.ReadCleanReq_mshr_miss_latency::total     94158000                       # number of ReadCleanReq MSHR miss cycles
system.l2.ReadSharedReq_mshr_miss_latency::cpu0.data     42450500                       # number of ReadSharedReq MSHR miss cycles
system.l2.ReadSharedReq_mshr_miss_latency::total     42450500                       # number of ReadSharedReq MSHR miss cycles
system.l2.demand_mshr_miss_latency::cpu0.inst     94158000                       # number of demand (read+write) MSHR miss cycles
system.l2.demand_mshr_miss_latency::cpu0.data    229465000                       # number of demand (read+write) MSHR miss cycles
system.l2.demand_mshr_miss_latency::total    323623000                       # number of demand (read+write) MSHR miss cycles
system.l2.overall_mshr_miss_latency::cpu0.inst     94158000                       # number of overall MSHR miss cycles
system.l2.overall_mshr_miss_latency::cpu0.data    229465000                       # number of overall MSHR miss cycles
system.l2.overall_mshr_miss_latency::total    323623000                       # number of overall MSHR miss cycles
system.l2.CleanEvict_mshr_miss_rate::writebacks          inf                       # mshr miss rate for CleanEvict accesses
system.l2.CleanEvict_mshr_miss_rate::total          inf                       # mshr miss rate for CleanEvict accesses
system.l2.ReadExReq_mshr_miss_rate::cpu0.data     0.798104                       # mshr miss rate for ReadExReq accesses
system.l2.ReadExReq_mshr_miss_rate::total     0.798104                       # mshr miss rate for ReadExReq accesses
system.l2.ReadCleanReq_mshr_miss_rate::cpu0.inst     0.021594                       # mshr miss rate for ReadCleanReq accesses
system.l2.ReadCleanReq_mshr_miss_rate::total     0.021594                       # mshr miss rate for ReadCleanReq accesses
system.l2.ReadSharedReq_mshr_miss_rate::cpu0.data     0.233910                       # mshr miss rate for ReadSharedReq accesses
system.l2.ReadSharedReq_mshr_miss_rate::total     0.233910                       # mshr miss rate for ReadSharedReq accesses
system.l2.demand_mshr_miss_rate::cpu0.inst     0.021594                       # mshr miss rate for demand accesses
system.l2.demand_mshr_miss_rate::cpu0.data     0.551339                       # mshr miss rate for demand accesses
system.l2.demand_mshr_miss_rate::total       0.067416                       # mshr miss rate for demand accesses
system.l2.overall_mshr_miss_rate::cpu0.inst     0.021594                       # mshr miss rate for overall accesses
system.l2.overall_mshr_miss_rate::cpu0.data     0.551339                       # mshr miss rate for overall accesses
system.l2.overall_mshr_miss_rate::total      0.067416                       # mshr miss rate for overall accesses
system.l2.ReadExReq_avg_mshr_miss_latency::cpu0.data 51647.196907                       # average ReadExReq mshr miss latency
system.l2.ReadExReq_avg_mshr_miss_latency::total 51647.196907                       # average ReadExReq mshr miss latency
system.l2.ReadCleanReq_avg_mshr_miss_latency::cpu0.inst 51200.652529                       # average ReadCleanReq mshr miss latency
system.l2.ReadCleanReq_avg_mshr_miss_latency::total 51200.652529                       # average ReadCleanReq mshr miss latency
system.l2.ReadSharedReq_avg_mshr_miss_latency::cpu0.data 51455.151515                       # average ReadSharedReq mshr miss latency
system.l2.ReadSharedReq_avg_mshr_miss_latency::total 51455.151515                       # average ReadSharedReq mshr miss latency
system.l2.demand_avg_mshr_miss_latency::cpu0.inst 51200.652529                       # average overall mshr miss latency
system.l2.demand_avg_mshr_miss_latency::cpu0.data 51611.560954                       # average overall mshr miss latency
system.l2.demand_avg_mshr_miss_latency::total 51491.328560                       # average overall mshr miss latency
system.l2.overall_avg_mshr_miss_latency::cpu0.inst 51200.652529                       # average overall mshr miss latency
system.l2.overall_avg_mshr_miss_latency::cpu0.data 51611.560954                       # average overall mshr miss latency
system.l2.overall_avg_mshr_miss_latency::total 51491.328560                       # average overall mshr miss latency
system.membus.snoop_filter.tot_requests          9067                       # Total number of requests made to the snoop filter.
system.membus.snoop_filter.hit_single_requests         2104                       # Number of requests hitting in the snoop filter with a single holder of the requested data.
system.membus.snoop_filter.hit_multi_requests            0                       # Number of requests hitting in the snoop filter with multiple (>1) holders of the requested data.
system.membus.snoop_filter.tot_snoops               0                       # Total number of snoops made to the snoop filter.
system.membus.snoop_filter.hit_single_snoops            0                       # Number of snoops hitting in the snoop filter with a single holder of the requested data.
system.membus.snoop_filter.hit_multi_snoops            0                       # Number of snoops hitting in the snoop filter with multiple (>1) holders of the requested data.
system.membus.pwrStateResidencyTicks::UNDEFINED 545532989000                       # Cumulative time (in ticks) in various power states
system.membus.trans_dist::ReadResp               2664                       # Transaction distribution
system.membus.trans_dist::WritebackDirty         1098                       # Transaction distribution
system.membus.trans_dist::CleanEvict              934                       # Transaction distribution
system.membus.trans_dist::ReadExReq              3621                       # Transaction distribution
system.membus.trans_dist::ReadExResp             3621                       # Transaction distribution
system.membus.trans_dist::ReadSharedReq          2664                       # Transaction distribution
system.membus.pkt_count_system.l2.mem_side::system.physmem.port        14602                       # Packet count per connected master and slave (bytes)
system.membus.pkt_count::total                  14602                       # Packet count per connected master and slave (bytes)
system.membus.pkt_size_system.l2.mem_side::system.physmem.port       472512                       # Cumulative packet size per connected master and slave (bytes)
system.membus.pkt_size::total                  472512                       # Cumulative packet size per connected master and slave (bytes)
system.membus.snoops                                0                       # Total snoops (count)
system.membus.snoopTraffic                          0                       # Total snoop traffic (bytes)
system.membus.snoop_fanout::samples              6964                       # Request fanout histogram
system.membus.snoop_fanout::mean                    0                       # Request fanout histogram
system.membus.snoop_fanout::stdev                   0                       # Request fanout histogram
system.membus.snoop_fanout::underflows              0      0.00%      0.00% # Request fanout histogram
system.membus.snoop_fanout::0                    6964    100.00%    100.00% # Request fanout histogram
system.membus.snoop_fanout::1                       0      0.00%    100.00% # Request fanout histogram
system.membus.snoop_fanout::overflows               0      0.00%    100.00% # Request fanout histogram
system.membus.snoop_fanout::min_value               0                       # Request fanout histogram
system.membus.snoop_fanout::max_value               0                       # Request fanout histogram
system.membus.snoop_fanout::total                6964                       # Request fanout histogram
system.membus.reqLayer0.occupancy            16755188                       # Layer occupancy (ticks)
system.membus.reqLayer0.utilization               0.0                       # Layer utilization (%)
system.membus.respLayer1.occupancy           31425000                       # Layer occupancy (ticks)
system.membus.respLayer1.utilization              0.0                       # Layer utilization (%)
system.tol2bus.snoop_filter.tot_requests       185430                       # Total number of requests made to the snoop filter.
system.tol2bus.snoop_filter.hit_single_requests        92237                       # Number of requests hitting in the snoop filter with a single holder of the requested data.
system.tol2bus.snoop_filter.hit_multi_requests         1871                       # Number of requests hitting in the snoop filter with multiple (>1) holders of the requested data.
system.tol2bus.snoop_filter.tot_snoops            199                       # Total number of snoops made to the snoop filter.
system.tol2bus.snoop_filter.hit_single_snoops          195                       # Number of snoops hitting in the snoop filter with a single holder of the requested data.
system.tol2bus.snoop_filter.hit_multi_snoops            4                       # Number of snoops hitting in the snoop filter with multiple (>1) holders of the requested data.
system.tol2bus.pwrStateResidencyTicks::UNDEFINED 545532989000                       # Cumulative time (in ticks) in various power states
system.tol2bus.trans_dist::ReadResp             88690                       # Transaction distribution
system.tol2bus.trans_dist::WritebackDirty         5961                       # Transaction distribution
system.tol2bus.trans_dist::WritebackClean        84651                       # Transaction distribution
system.tol2bus.trans_dist::CleanEvict            3815                       # Transaction distribution
system.tol2bus.trans_dist::ReadExReq             4537                       # Transaction distribution
system.tol2bus.trans_dist::ReadExResp            4537                       # Transaction distribution
system.tol2bus.trans_dist::ReadCleanReq         85163                       # Transaction distribution
system.tol2bus.trans_dist::ReadSharedReq         3527                       # Transaction distribution
system.tol2bus.pkt_count_system.cpu0.icache.mem_side::system.l2.cpu_side       254977                       # Packet count per connected master and slave (bytes)
system.tol2bus.pkt_count_system.cpu0.dcache.mem_side::system.l2.cpu_side        23680                       # Packet count per connected master and slave (bytes)
system.tol2bus.pkt_count::total                278657                       # Packet count per connected master and slave (bytes)
system.tol2bus.pkt_size_system.cpu0.icache.mem_side::system.l2.cpu_side     10868096                       # Cumulative packet size per connected master and slave (bytes)
system.tol2bus.pkt_size_system.cpu0.dcache.mem_side::system.l2.cpu_side       827328                       # Cumulative packet size per connected master and slave (bytes)
system.tol2bus.pkt_size::total               11695424                       # Cumulative packet size per connected master and slave (bytes)
system.tol2bus.snoops                            2224                       # Total snoops (count)
system.tol2bus.snoopTraffic                     70272                       # Total snoop traffic (bytes)
system.tol2bus.snoop_fanout::samples            95451                       # Request fanout histogram
system.tol2bus.snoop_fanout::mean            0.022085                       # Request fanout histogram
system.tol2bus.snoop_fanout::stdev           0.147244                       # Request fanout histogram
system.tol2bus.snoop_fanout::underflows             0      0.00%      0.00% # Request fanout histogram
system.tol2bus.snoop_fanout::0                  93347     97.80%     97.80% # Request fanout histogram
system.tol2bus.snoop_fanout::1                   2100      2.20%    100.00% # Request fanout histogram
system.tol2bus.snoop_fanout::2                      4      0.00%    100.00% # Request fanout histogram
system.tol2bus.snoop_fanout::3                      0      0.00%    100.00% # Request fanout histogram
system.tol2bus.snoop_fanout::4                      0      0.00%    100.00% # Request fanout histogram
system.tol2bus.snoop_fanout::5                      0      0.00%    100.00% # Request fanout histogram
system.tol2bus.snoop_fanout::6                      0      0.00%    100.00% # Request fanout histogram
system.tol2bus.snoop_fanout::7                      0      0.00%    100.00% # Request fanout histogram
system.tol2bus.snoop_fanout::8                      0      0.00%    100.00% # Request fanout histogram
system.tol2bus.snoop_fanout::9                      0      0.00%    100.00% # Request fanout histogram
system.tol2bus.snoop_fanout::10                     0      0.00%    100.00% # Request fanout histogram
system.tol2bus.snoop_fanout::11                     0      0.00%    100.00% # Request fanout histogram
system.tol2bus.snoop_fanout::12                     0      0.00%    100.00% # Request fanout histogram
system.tol2bus.snoop_fanout::13                     0      0.00%    100.00% # Request fanout histogram
system.tol2bus.snoop_fanout::14                     0      0.00%    100.00% # Request fanout histogram
system.tol2bus.snoop_fanout::15                     0      0.00%    100.00% # Request fanout histogram
system.tol2bus.snoop_fanout::16                     0      0.00%    100.00% # Request fanout histogram
system.tol2bus.snoop_fanout::overflows              0      0.00%    100.00% # Request fanout histogram
system.tol2bus.snoop_fanout::min_value              0                       # Request fanout histogram
system.tol2bus.snoop_fanout::max_value              2                       # Request fanout histogram
system.tol2bus.snoop_fanout::total              95451                       # Request fanout histogram
system.tol2bus.reqLayer0.occupancy          182229000                       # Layer occupancy (ticks)
system.tol2bus.reqLayer0.utilization              0.0                       # Layer utilization (%)
system.tol2bus.respLayer0.occupancy         127749989                       # Layer occupancy (ticks)
system.tol2bus.respLayer0.utilization             0.0                       # Layer utilization (%)
system.tol2bus.respLayer1.occupancy          12106479                       # Layer occupancy (ticks)
system.tol2bus.respLayer1.utilization             0.0                       # Layer utilization (%)

---------- End Simulation Statistics   ----------
