
---------- Begin Simulation Statistics ----------
sim_seconds                                  0.087535                       # Number of seconds simulated
sim_ticks                                 87534926000                       # Number of ticks simulated
final_tick                                87534926000                       # Number of ticks from beginning of simulation (restored from checkpoints and never reset)
sim_freq                                 1000000000000                       # Frequency of simulated ticks
host_inst_rate                                 230386                       # Simulator instruction rate (inst/s)
host_op_rate                                   253015                       # Simulator op (including micro ops) rate (op/s)
host_tick_rate                               26082175                       # Simulator tick rate (ticks/s)
host_mem_usage                                 725648                       # Number of bytes of host memory used
host_seconds                                  3356.12                       # Real time elapsed on the host
sim_insts                                   773204561                       # Number of instructions simulated
sim_ops                                     849148202                       # Number of ops (including micro ops) simulated
system.voltage_domain.voltage                       1                       # Voltage in Volts
system.clk_domain.clock                          1000                       # Clock period in ticks
system.physmem.pwrStateResidencyTicks::UNDEFINED  87534926000                       # Cumulative time (in ticks) in various power states
system.physmem.bytes_read::cpu0.inst           210624                       # Number of bytes read from this memory
system.physmem.bytes_read::cpu0.data           146304                       # Number of bytes read from this memory
system.physmem.bytes_read::cpu1.inst            68736                       # Number of bytes read from this memory
system.physmem.bytes_read::cpu1.data            70592                       # Number of bytes read from this memory
system.physmem.bytes_read::cpu2.inst            64576                       # Number of bytes read from this memory
system.physmem.bytes_read::cpu2.data            63808                       # Number of bytes read from this memory
system.physmem.bytes_read::cpu3.inst            38016                       # Number of bytes read from this memory
system.physmem.bytes_read::cpu3.data            53568                       # Number of bytes read from this memory
system.physmem.bytes_read::cpu4.inst           101248                       # Number of bytes read from this memory
system.physmem.bytes_read::cpu4.data            77568                       # Number of bytes read from this memory
system.physmem.bytes_read::cpu5.inst            74816                       # Number of bytes read from this memory
system.physmem.bytes_read::cpu5.data            66176                       # Number of bytes read from this memory
system.physmem.bytes_read::cpu6.inst            50880                       # Number of bytes read from this memory
system.physmem.bytes_read::cpu6.data            53824                       # Number of bytes read from this memory
system.physmem.bytes_read::cpu7.inst           122240                       # Number of bytes read from this memory
system.physmem.bytes_read::cpu7.data            53696                       # Number of bytes read from this memory
system.physmem.bytes_read::total              1316672                       # Number of bytes read from this memory
system.physmem.bytes_inst_read::cpu0.inst       210624                       # Number of instructions bytes read from this memory
system.physmem.bytes_inst_read::cpu1.inst        68736                       # Number of instructions bytes read from this memory
system.physmem.bytes_inst_read::cpu2.inst        64576                       # Number of instructions bytes read from this memory
system.physmem.bytes_inst_read::cpu3.inst        38016                       # Number of instructions bytes read from this memory
system.physmem.bytes_inst_read::cpu4.inst       101248                       # Number of instructions bytes read from this memory
system.physmem.bytes_inst_read::cpu5.inst        74816                       # Number of instructions bytes read from this memory
system.physmem.bytes_inst_read::cpu6.inst        50880                       # Number of instructions bytes read from this memory
system.physmem.bytes_inst_read::cpu7.inst       122240                       # Number of instructions bytes read from this memory
system.physmem.bytes_inst_read::total          731136                       # Number of instructions bytes read from this memory
system.physmem.bytes_written::writebacks       321344                       # Number of bytes written to this memory
system.physmem.bytes_written::total            321344                       # Number of bytes written to this memory
system.physmem.num_reads::cpu0.inst              3291                       # Number of read requests responded to by this memory
system.physmem.num_reads::cpu0.data              2286                       # Number of read requests responded to by this memory
system.physmem.num_reads::cpu1.inst              1074                       # Number of read requests responded to by this memory
system.physmem.num_reads::cpu1.data              1103                       # Number of read requests responded to by this memory
system.physmem.num_reads::cpu2.inst              1009                       # Number of read requests responded to by this memory
system.physmem.num_reads::cpu2.data               997                       # Number of read requests responded to by this memory
system.physmem.num_reads::cpu3.inst               594                       # Number of read requests responded to by this memory
system.physmem.num_reads::cpu3.data               837                       # Number of read requests responded to by this memory
system.physmem.num_reads::cpu4.inst              1582                       # Number of read requests responded to by this memory
system.physmem.num_reads::cpu4.data              1212                       # Number of read requests responded to by this memory
system.physmem.num_reads::cpu5.inst              1169                       # Number of read requests responded to by this memory
system.physmem.num_reads::cpu5.data              1034                       # Number of read requests responded to by this memory
system.physmem.num_reads::cpu6.inst               795                       # Number of read requests responded to by this memory
system.physmem.num_reads::cpu6.data               841                       # Number of read requests responded to by this memory
system.physmem.num_reads::cpu7.inst              1910                       # Number of read requests responded to by this memory
system.physmem.num_reads::cpu7.data               839                       # Number of read requests responded to by this memory
system.physmem.num_reads::total                 20573                       # Number of read requests responded to by this memory
system.physmem.num_writes::writebacks            5021                       # Number of write requests responded to by this memory
system.physmem.num_writes::total                 5021                       # Number of write requests responded to by this memory
system.physmem.bw_read::cpu0.inst             2406171                       # Total read bandwidth from this memory (bytes/s)
system.physmem.bw_read::cpu0.data             1671379                       # Total read bandwidth from this memory (bytes/s)
system.physmem.bw_read::cpu1.inst              785241                       # Total read bandwidth from this memory (bytes/s)
system.physmem.bw_read::cpu1.data              806444                       # Total read bandwidth from this memory (bytes/s)
system.physmem.bw_read::cpu2.inst              737717                       # Total read bandwidth from this memory (bytes/s)
system.physmem.bw_read::cpu2.data              728943                       # Total read bandwidth from this memory (bytes/s)
system.physmem.bw_read::cpu3.inst              434295                       # Total read bandwidth from this memory (bytes/s)
system.physmem.bw_read::cpu3.data              611961                       # Total read bandwidth from this memory (bytes/s)
system.physmem.bw_read::cpu4.inst             1156658                       # Total read bandwidth from this memory (bytes/s)
system.physmem.bw_read::cpu4.data              886138                       # Total read bandwidth from this memory (bytes/s)
system.physmem.bw_read::cpu5.inst              854699                       # Total read bandwidth from this memory (bytes/s)
system.physmem.bw_read::cpu5.data              755995                       # Total read bandwidth from this memory (bytes/s)
system.physmem.bw_read::cpu6.inst              581254                       # Total read bandwidth from this memory (bytes/s)
system.physmem.bw_read::cpu6.data              614886                       # Total read bandwidth from this memory (bytes/s)
system.physmem.bw_read::cpu7.inst             1396471                       # Total read bandwidth from this memory (bytes/s)
system.physmem.bw_read::cpu7.data              613424                       # Total read bandwidth from this memory (bytes/s)
system.physmem.bw_read::total                15041676                       # Total read bandwidth from this memory (bytes/s)
system.physmem.bw_inst_read::cpu0.inst        2406171                       # Instruction read bandwidth from this memory (bytes/s)
system.physmem.bw_inst_read::cpu1.inst         785241                       # Instruction read bandwidth from this memory (bytes/s)
system.physmem.bw_inst_read::cpu2.inst         737717                       # Instruction read bandwidth from this memory (bytes/s)
system.physmem.bw_inst_read::cpu3.inst         434295                       # Instruction read bandwidth from this memory (bytes/s)
system.physmem.bw_inst_read::cpu4.inst        1156658                       # Instruction read bandwidth from this memory (bytes/s)
system.physmem.bw_inst_read::cpu5.inst         854699                       # Instruction read bandwidth from this memory (bytes/s)
system.physmem.bw_inst_read::cpu6.inst         581254                       # Instruction read bandwidth from this memory (bytes/s)
system.physmem.bw_inst_read::cpu7.inst        1396471                       # Instruction read bandwidth from this memory (bytes/s)
system.physmem.bw_inst_read::total            8352506                       # Instruction read bandwidth from this memory (bytes/s)
system.physmem.bw_write::writebacks           3671038                       # Write bandwidth from this memory (bytes/s)
system.physmem.bw_write::total                3671038                       # Write bandwidth from this memory (bytes/s)
system.physmem.bw_total::writebacks           3671038                       # Total bandwidth to/from this memory (bytes/s)
system.physmem.bw_total::cpu0.inst            2406171                       # Total bandwidth to/from this memory (bytes/s)
system.physmem.bw_total::cpu0.data            1671379                       # Total bandwidth to/from this memory (bytes/s)
system.physmem.bw_total::cpu1.inst             785241                       # Total bandwidth to/from this memory (bytes/s)
system.physmem.bw_total::cpu1.data             806444                       # Total bandwidth to/from this memory (bytes/s)
system.physmem.bw_total::cpu2.inst             737717                       # Total bandwidth to/from this memory (bytes/s)
system.physmem.bw_total::cpu2.data             728943                       # Total bandwidth to/from this memory (bytes/s)
system.physmem.bw_total::cpu3.inst             434295                       # Total bandwidth to/from this memory (bytes/s)
system.physmem.bw_total::cpu3.data             611961                       # Total bandwidth to/from this memory (bytes/s)
system.physmem.bw_total::cpu4.inst            1156658                       # Total bandwidth to/from this memory (bytes/s)
system.physmem.bw_total::cpu4.data             886138                       # Total bandwidth to/from this memory (bytes/s)
system.physmem.bw_total::cpu5.inst             854699                       # Total bandwidth to/from this memory (bytes/s)
system.physmem.bw_total::cpu5.data             755995                       # Total bandwidth to/from this memory (bytes/s)
system.physmem.bw_total::cpu6.inst             581254                       # Total bandwidth to/from this memory (bytes/s)
system.physmem.bw_total::cpu6.data             614886                       # Total bandwidth to/from this memory (bytes/s)
system.physmem.bw_total::cpu7.inst            1396471                       # Total bandwidth to/from this memory (bytes/s)
system.physmem.bw_total::cpu7.data             613424                       # Total bandwidth to/from this memory (bytes/s)
system.physmem.bw_total::total               18712714                       # Total bandwidth to/from this memory (bytes/s)
system.pwrStateResidencyTicks::UNDEFINED  87534926000                       # Cumulative time (in ticks) in various power states
system.cpu0.branchPred.lookups               18456662                       # Number of BP lookups
system.cpu0.branchPred.condPredicted         11296627                       # Number of conditional branches predicted
system.cpu0.branchPred.condIncorrect           435973                       # Number of conditional branches incorrect
system.cpu0.branchPred.BTBLookups            10048382                       # Number of BTB lookups
system.cpu0.branchPred.BTBHits                8693412                       # Number of BTB hits
system.cpu0.branchPred.BTBCorrect                   0                       # Number of correct BTB predictions (this stat may not work properly.
system.cpu0.branchPred.BTBHitPct            86.515541                       # BTB Hit Percentage
system.cpu0.branchPred.usedRAS                2304810                       # Number of times the RAS was used to get a target.
system.cpu0.branchPred.RASInCorrect             40471                       # Number of incorrect RAS predictions.
system.cpu0.branchPred.indirectLookups         567470                       # Number of indirect predictor lookups.
system.cpu0.branchPred.indirectHits            562717                       # Number of indirect target hits.
system.cpu0.branchPred.indirectMisses            4753                       # Number of indirect misses.
system.cpu0.branchPredindirectMispredicted         9523                       # Number of mispredicted indirect branches.
system.cpu0.dstage2_mmu.stage2_tlb.walker.pwrStateResidencyTicks::UNDEFINED  87534926000                       # Cumulative time (in ticks) in various power states
system.cpu0.dstage2_mmu.stage2_tlb.walker.walks            0                       # Table walker walks requested
system.cpu0.dstage2_mmu.stage2_tlb.walker.walkRequestOrigin_Requested::Data            0                       # Table walker requests started/completed, data/inst
system.cpu0.dstage2_mmu.stage2_tlb.walker.walkRequestOrigin_Requested::Inst            0                       # Table walker requests started/completed, data/inst
system.cpu0.dstage2_mmu.stage2_tlb.walker.walkRequestOrigin_Requested::total            0                       # Table walker requests started/completed, data/inst
system.cpu0.dstage2_mmu.stage2_tlb.walker.walkRequestOrigin_Completed::Data            0                       # Table walker requests started/completed, data/inst
system.cpu0.dstage2_mmu.stage2_tlb.walker.walkRequestOrigin_Completed::Inst            0                       # Table walker requests started/completed, data/inst
system.cpu0.dstage2_mmu.stage2_tlb.walker.walkRequestOrigin_Completed::total            0                       # Table walker requests started/completed, data/inst
system.cpu0.dstage2_mmu.stage2_tlb.walker.walkRequestOrigin::total            0                       # Table walker requests started/completed, data/inst
system.cpu0.dstage2_mmu.stage2_tlb.inst_hits            0                       # ITB inst hits
system.cpu0.dstage2_mmu.stage2_tlb.inst_misses            0                       # ITB inst misses
system.cpu0.dstage2_mmu.stage2_tlb.read_hits            0                       # DTB read hits
system.cpu0.dstage2_mmu.stage2_tlb.read_misses            0                       # DTB read misses
system.cpu0.dstage2_mmu.stage2_tlb.write_hits            0                       # DTB write hits
system.cpu0.dstage2_mmu.stage2_tlb.write_misses            0                       # DTB write misses
system.cpu0.dstage2_mmu.stage2_tlb.flush_tlb            0                       # Number of times complete TLB was flushed
system.cpu0.dstage2_mmu.stage2_tlb.flush_tlb_mva            0                       # Number of times TLB was flushed by MVA
system.cpu0.dstage2_mmu.stage2_tlb.flush_tlb_mva_asid            0                       # Number of times TLB was flushed by MVA & ASID
system.cpu0.dstage2_mmu.stage2_tlb.flush_tlb_asid            0                       # Number of times TLB was flushed by ASID
system.cpu0.dstage2_mmu.stage2_tlb.flush_entries            0                       # Number of entries that have been flushed from TLB
system.cpu0.dstage2_mmu.stage2_tlb.align_faults            0                       # Number of TLB faults due to alignment restrictions
system.cpu0.dstage2_mmu.stage2_tlb.prefetch_faults            0                       # Number of TLB faults due to prefetch
system.cpu0.dstage2_mmu.stage2_tlb.domain_faults            0                       # Number of TLB faults due to domain restrictions
system.cpu0.dstage2_mmu.stage2_tlb.perms_faults            0                       # Number of TLB faults due to permissions restrictions
system.cpu0.dstage2_mmu.stage2_tlb.read_accesses            0                       # DTB read accesses
system.cpu0.dstage2_mmu.stage2_tlb.write_accesses            0                       # DTB write accesses
system.cpu0.dstage2_mmu.stage2_tlb.inst_accesses            0                       # ITB inst accesses
system.cpu0.dstage2_mmu.stage2_tlb.hits             0                       # DTB hits
system.cpu0.dstage2_mmu.stage2_tlb.misses            0                       # DTB misses
system.cpu0.dstage2_mmu.stage2_tlb.accesses            0                       # DTB accesses
system.cpu0.dtb.walker.pwrStateResidencyTicks::UNDEFINED  87534926000                       # Cumulative time (in ticks) in various power states
system.cpu0.dtb.walker.walks                        0                       # Table walker walks requested
system.cpu0.dtb.walker.walkRequestOrigin_Requested::Data            0                       # Table walker requests started/completed, data/inst
system.cpu0.dtb.walker.walkRequestOrigin_Requested::Inst            0                       # Table walker requests started/completed, data/inst
system.cpu0.dtb.walker.walkRequestOrigin_Requested::total            0                       # Table walker requests started/completed, data/inst
system.cpu0.dtb.walker.walkRequestOrigin_Completed::Data            0                       # Table walker requests started/completed, data/inst
system.cpu0.dtb.walker.walkRequestOrigin_Completed::Inst            0                       # Table walker requests started/completed, data/inst
system.cpu0.dtb.walker.walkRequestOrigin_Completed::total            0                       # Table walker requests started/completed, data/inst
system.cpu0.dtb.walker.walkRequestOrigin::total            0                       # Table walker requests started/completed, data/inst
system.cpu0.dtb.inst_hits                           0                       # ITB inst hits
system.cpu0.dtb.inst_misses                         0                       # ITB inst misses
system.cpu0.dtb.read_hits                           0                       # DTB read hits
system.cpu0.dtb.read_misses                         0                       # DTB read misses
system.cpu0.dtb.write_hits                          0                       # DTB write hits
system.cpu0.dtb.write_misses                        0                       # DTB write misses
system.cpu0.dtb.flush_tlb                           0                       # Number of times complete TLB was flushed
system.cpu0.dtb.flush_tlb_mva                       0                       # Number of times TLB was flushed by MVA
system.cpu0.dtb.flush_tlb_mva_asid                  0                       # Number of times TLB was flushed by MVA & ASID
system.cpu0.dtb.flush_tlb_asid                      0                       # Number of times TLB was flushed by ASID
system.cpu0.dtb.flush_entries                       0                       # Number of entries that have been flushed from TLB
system.cpu0.dtb.align_faults                        0                       # Number of TLB faults due to alignment restrictions
system.cpu0.dtb.prefetch_faults                     0                       # Number of TLB faults due to prefetch
system.cpu0.dtb.domain_faults                       0                       # Number of TLB faults due to domain restrictions
system.cpu0.dtb.perms_faults                        0                       # Number of TLB faults due to permissions restrictions
system.cpu0.dtb.read_accesses                       0                       # DTB read accesses
system.cpu0.dtb.write_accesses                      0                       # DTB write accesses
system.cpu0.dtb.inst_accesses                       0                       # ITB inst accesses
system.cpu0.dtb.hits                                0                       # DTB hits
system.cpu0.dtb.misses                              0                       # DTB misses
system.cpu0.dtb.accesses                            0                       # DTB accesses
system.cpu0.istage2_mmu.stage2_tlb.walker.pwrStateResidencyTicks::UNDEFINED  87534926000                       # Cumulative time (in ticks) in various power states
system.cpu0.istage2_mmu.stage2_tlb.walker.walks            0                       # Table walker walks requested
system.cpu0.istage2_mmu.stage2_tlb.walker.walkRequestOrigin_Requested::Data            0                       # Table walker requests started/completed, data/inst
system.cpu0.istage2_mmu.stage2_tlb.walker.walkRequestOrigin_Requested::Inst            0                       # Table walker requests started/completed, data/inst
system.cpu0.istage2_mmu.stage2_tlb.walker.walkRequestOrigin_Requested::total            0                       # Table walker requests started/completed, data/inst
system.cpu0.istage2_mmu.stage2_tlb.walker.walkRequestOrigin_Completed::Data            0                       # Table walker requests started/completed, data/inst
system.cpu0.istage2_mmu.stage2_tlb.walker.walkRequestOrigin_Completed::Inst            0                       # Table walker requests started/completed, data/inst
system.cpu0.istage2_mmu.stage2_tlb.walker.walkRequestOrigin_Completed::total            0                       # Table walker requests started/completed, data/inst
system.cpu0.istage2_mmu.stage2_tlb.walker.walkRequestOrigin::total            0                       # Table walker requests started/completed, data/inst
system.cpu0.istage2_mmu.stage2_tlb.inst_hits            0                       # ITB inst hits
system.cpu0.istage2_mmu.stage2_tlb.inst_misses            0                       # ITB inst misses
system.cpu0.istage2_mmu.stage2_tlb.read_hits            0                       # DTB read hits
system.cpu0.istage2_mmu.stage2_tlb.read_misses            0                       # DTB read misses
system.cpu0.istage2_mmu.stage2_tlb.write_hits            0                       # DTB write hits
system.cpu0.istage2_mmu.stage2_tlb.write_misses            0                       # DTB write misses
system.cpu0.istage2_mmu.stage2_tlb.flush_tlb            0                       # Number of times complete TLB was flushed
system.cpu0.istage2_mmu.stage2_tlb.flush_tlb_mva            0                       # Number of times TLB was flushed by MVA
system.cpu0.istage2_mmu.stage2_tlb.flush_tlb_mva_asid            0                       # Number of times TLB was flushed by MVA & ASID
system.cpu0.istage2_mmu.stage2_tlb.flush_tlb_asid            0                       # Number of times TLB was flushed by ASID
system.cpu0.istage2_mmu.stage2_tlb.flush_entries            0                       # Number of entries that have been flushed from TLB
system.cpu0.istage2_mmu.stage2_tlb.align_faults            0                       # Number of TLB faults due to alignment restrictions
system.cpu0.istage2_mmu.stage2_tlb.prefetch_faults            0                       # Number of TLB faults due to prefetch
system.cpu0.istage2_mmu.stage2_tlb.domain_faults            0                       # Number of TLB faults due to domain restrictions
system.cpu0.istage2_mmu.stage2_tlb.perms_faults            0                       # Number of TLB faults due to permissions restrictions
system.cpu0.istage2_mmu.stage2_tlb.read_accesses            0                       # DTB read accesses
system.cpu0.istage2_mmu.stage2_tlb.write_accesses            0                       # DTB write accesses
system.cpu0.istage2_mmu.stage2_tlb.inst_accesses            0                       # ITB inst accesses
system.cpu0.istage2_mmu.stage2_tlb.hits             0                       # DTB hits
system.cpu0.istage2_mmu.stage2_tlb.misses            0                       # DTB misses
system.cpu0.istage2_mmu.stage2_tlb.accesses            0                       # DTB accesses
system.cpu0.itb.walker.pwrStateResidencyTicks::UNDEFINED  87534926000                       # Cumulative time (in ticks) in various power states
system.cpu0.itb.walker.walks                        0                       # Table walker walks requested
system.cpu0.itb.walker.walkRequestOrigin_Requested::Data            0                       # Table walker requests started/completed, data/inst
system.cpu0.itb.walker.walkRequestOrigin_Requested::Inst            0                       # Table walker requests started/completed, data/inst
system.cpu0.itb.walker.walkRequestOrigin_Requested::total            0                       # Table walker requests started/completed, data/inst
system.cpu0.itb.walker.walkRequestOrigin_Completed::Data            0                       # Table walker requests started/completed, data/inst
system.cpu0.itb.walker.walkRequestOrigin_Completed::Inst            0                       # Table walker requests started/completed, data/inst
system.cpu0.itb.walker.walkRequestOrigin_Completed::total            0                       # Table walker requests started/completed, data/inst
system.cpu0.itb.walker.walkRequestOrigin::total            0                       # Table walker requests started/completed, data/inst
system.cpu0.itb.inst_hits                           0                       # ITB inst hits
system.cpu0.itb.inst_misses                         0                       # ITB inst misses
system.cpu0.itb.read_hits                           0                       # DTB read hits
system.cpu0.itb.read_misses                         0                       # DTB read misses
system.cpu0.itb.write_hits                          0                       # DTB write hits
system.cpu0.itb.write_misses                        0                       # DTB write misses
system.cpu0.itb.flush_tlb                           0                       # Number of times complete TLB was flushed
system.cpu0.itb.flush_tlb_mva                       0                       # Number of times TLB was flushed by MVA
system.cpu0.itb.flush_tlb_mva_asid                  0                       # Number of times TLB was flushed by MVA & ASID
system.cpu0.itb.flush_tlb_asid                      0                       # Number of times TLB was flushed by ASID
system.cpu0.itb.flush_entries                       0                       # Number of entries that have been flushed from TLB
system.cpu0.itb.align_faults                        0                       # Number of TLB faults due to alignment restrictions
system.cpu0.itb.prefetch_faults                     0                       # Number of TLB faults due to prefetch
system.cpu0.itb.domain_faults                       0                       # Number of TLB faults due to domain restrictions
system.cpu0.itb.perms_faults                        0                       # Number of TLB faults due to permissions restrictions
system.cpu0.itb.read_accesses                       0                       # DTB read accesses
system.cpu0.itb.write_accesses                      0                       # DTB write accesses
system.cpu0.itb.inst_accesses                       0                       # ITB inst accesses
system.cpu0.itb.hits                                0                       # DTB hits
system.cpu0.itb.misses                              0                       # DTB misses
system.cpu0.itb.accesses                            0                       # DTB accesses
system.cpu0.workload.num_syscalls              254283                       # Number of system calls
system.cpu0.pwrStateResidencyTicks::ON    87534926000                       # Cumulative time (in ticks) in various power states
system.cpu0.numCycles                        87534927                       # number of cpu cycles simulated
system.cpu0.numWorkItemsStarted                     0                       # number of work items this cpu started
system.cpu0.numWorkItemsCompleted                   0                       # number of work items this cpu completed
system.cpu0.fetch.icacheStallCycles          18634970                       # Number of cycles fetch is stalled on an Icache miss
system.cpu0.fetch.Insts                     103600041                       # Number of instructions fetch has processed
system.cpu0.fetch.Branches                   18456662                       # Number of branches that fetch encountered
system.cpu0.fetch.predictedBranches          11560939                       # Number of branches that fetch has predicted taken
system.cpu0.fetch.Cycles                     68364759                       # Number of cycles fetch has run and was not squashing or blocked
system.cpu0.fetch.SquashCycles                 879557                       # Number of cycles fetch has spent squashing
system.cpu0.fetch.MiscStallCycles                   8                       # Number of cycles fetch has spent waiting on interrupts, or bad addresses, or out of MSHRs
system.cpu0.fetch.PendingTrapStallCycles          371                       # Number of stall cycles due to pending traps
system.cpu0.fetch.IcacheWaitRetryStallCycles           11                       # Number of stall cycles due to full MSHR
system.cpu0.fetch.CacheLines                 14370779                       # Number of cache lines fetched
system.cpu0.fetch.IcacheSquashes                78134                       # Number of outstanding Icache misses that were squashed
system.cpu0.fetch.rateDist::samples          87439897                       # Number of instructions fetched each cycle (Total)
system.cpu0.fetch.rateDist::mean             1.339748                       # Number of instructions fetched each cycle (Total)
system.cpu0.fetch.rateDist::stdev            0.878676                       # Number of instructions fetched each cycle (Total)
system.cpu0.fetch.rateDist::underflows              0      0.00%      0.00% # Number of instructions fetched each cycle (Total)
system.cpu0.fetch.rateDist::0                23947677     27.39%     27.39% # Number of instructions fetched each cycle (Total)
system.cpu0.fetch.rateDist::1                 9837028     11.25%     38.64% # Number of instructions fetched each cycle (Total)
system.cpu0.fetch.rateDist::2                53655192     61.36%    100.00% # Number of instructions fetched each cycle (Total)
system.cpu0.fetch.rateDist::overflows               0      0.00%    100.00% # Number of instructions fetched each cycle (Total)
system.cpu0.fetch.rateDist::min_value               0                       # Number of instructions fetched each cycle (Total)
system.cpu0.fetch.rateDist::max_value               2                       # Number of instructions fetched each cycle (Total)
system.cpu0.fetch.rateDist::total            87439897                       # Number of instructions fetched each cycle (Total)
system.cpu0.fetch.branchRate                 0.210849                       # Number of branch fetches per cycle
system.cpu0.fetch.rate                       1.183528                       # Number of inst fetches per cycle
system.cpu0.decode.IdleCycles                16323966                       # Number of cycles decode is idle
system.cpu0.decode.BlockedCycles             11572650                       # Number of cycles decode is blocked
system.cpu0.decode.RunCycles                 47263239                       # Number of cycles decode is running
system.cpu0.decode.UnblockCycles             11873297                       # Number of cycles decode is unblocking
system.cpu0.decode.SquashCycles                406745                       # Number of cycles decode is squashing
system.cpu0.decode.BranchResolved             4932905                       # Number of times decode resolved a branch
system.cpu0.decode.BranchMispred                33306                       # Number of times decode detected a branch misprediction
system.cpu0.decode.DecodedInsts             114678086                       # Number of instructions handled by decode
system.cpu0.decode.SquashedInsts                57464                       # Number of squashed instructions handled by decode
system.cpu0.rename.SquashCycles                406745                       # Number of cycles rename is squashing
system.cpu0.rename.IdleCycles                18906977                       # Number of cycles rename is idle
system.cpu0.rename.BlockCycles                1350710                       # Number of cycles rename is blocking
system.cpu0.rename.serializeStallCycles        580020                       # count of cycles rename stalled for serializing inst
system.cpu0.rename.RunCycles                 56520079                       # Number of cycles rename is running
system.cpu0.rename.UnblockCycles              9675366                       # Number of cycles rename is unblocking
system.cpu0.rename.RenamedInsts             114058646                       # Number of instructions processed by rename
system.cpu0.rename.IQFullEvents               7370179                       # Number of times rename has blocked due to IQ full
system.cpu0.rename.LQFullEvents                 52893                       # Number of times rename has blocked due to LQ full
system.cpu0.rename.SQFullEvents                  3169                       # Number of times rename has blocked due to SQ full
system.cpu0.rename.RenamedOperands          143171204                       # Number of destination operands rename has renamed
system.cpu0.rename.RenameLookups            526942954                       # Number of register rename lookups that rename has made
system.cpu0.rename.int_rename_lookups       145704659                       # Number of integer rename lookups
system.cpu0.rename.fp_rename_lookups               16                       # Number of floating rename lookups
system.cpu0.rename.CommittedMaps            123901899                       # Number of HB maps that are committed
system.cpu0.rename.UndoneMaps                19269305                       # Number of HB maps that are undone due to squashing
system.cpu0.rename.serializingInsts             20718                       # count of serializing insts renamed
system.cpu0.rename.tempSerializingInsts          9344                       # count of temporary serializing insts renamed
system.cpu0.rename.skidInsts                 10373434                       # count of insts added to the skid buffer
system.cpu0.memDep0.insertedLoads            14704675                       # Number of loads inserted to the mem dependence unit.
system.cpu0.memDep0.insertedStores            9321497                       # Number of stores inserted to the mem dependence unit.
system.cpu0.memDep0.conflictingLoads          4391587                       # Number of conflicting loads.
system.cpu0.memDep0.conflictingStores         1676402                       # Number of conflicting stores.
system.cpu0.iq.iqInstsAdded                 112846076                       # Number of instructions added to the IQ (excludes non-spec)
system.cpu0.iq.iqNonSpecInstsAdded              18161                       # Number of non-speculative instructions added to the IQ
system.cpu0.iq.iqInstsIssued                102298793                       # Number of instructions issued
system.cpu0.iq.iqSquashedInstsIssued          1461374                       # Number of squashed instructions issued
system.cpu0.iq.iqSquashedInstsExamined       12396253                       # Number of squashed instructions iterated over during squash; mainly for profiling
system.cpu0.iq.iqSquashedOperandsExamined     50066442                       # Number of squashed operands that are examined and possibly removed from graph
system.cpu0.iq.iqSquashedNonSpecRemoved           937                       # Number of squashed non-spec instructions that were removed
system.cpu0.iq.issued_per_cycle::samples     87439897                       # Number of insts issued each cycle
system.cpu0.iq.issued_per_cycle::mean        1.169933                       # Number of insts issued each cycle
system.cpu0.iq.issued_per_cycle::stdev       0.549320                       # Number of insts issued each cycle
system.cpu0.iq.issued_per_cycle::underflows            0      0.00%      0.00% # Number of insts issued each cycle
system.cpu0.iq.issued_per_cycle::0            7025677      8.03%      8.03% # Number of insts issued each cycle
system.cpu0.iq.issued_per_cycle::1           58529647     66.94%     74.97% # Number of insts issued each cycle
system.cpu0.iq.issued_per_cycle::2           21884573     25.03%    100.00% # Number of insts issued each cycle
system.cpu0.iq.issued_per_cycle::overflows            0      0.00%    100.00% # Number of insts issued each cycle
system.cpu0.iq.issued_per_cycle::min_value            0                       # Number of insts issued each cycle
system.cpu0.iq.issued_per_cycle::max_value            2                       # Number of insts issued each cycle
system.cpu0.iq.issued_per_cycle::total       87439897                       # Number of insts issued each cycle
system.cpu0.iq.fu_full::No_OpClass                  0      0.00%      0.00% # attempts to use FU when none available
system.cpu0.iq.fu_full::IntAlu               61162423     94.15%     94.15% # attempts to use FU when none available
system.cpu0.iq.fu_full::IntMult                     0      0.00%     94.15% # attempts to use FU when none available
system.cpu0.iq.fu_full::IntDiv                      0      0.00%     94.15% # attempts to use FU when none available
system.cpu0.iq.fu_full::FloatAdd                    0      0.00%     94.15% # attempts to use FU when none available
system.cpu0.iq.fu_full::FloatCmp                    0      0.00%     94.15% # attempts to use FU when none available
system.cpu0.iq.fu_full::FloatCvt                    0      0.00%     94.15% # attempts to use FU when none available
system.cpu0.iq.fu_full::FloatMult                   0      0.00%     94.15% # attempts to use FU when none available
system.cpu0.iq.fu_full::FloatMultAcc                0      0.00%     94.15% # attempts to use FU when none available
system.cpu0.iq.fu_full::FloatDiv                    0      0.00%     94.15% # attempts to use FU when none available
system.cpu0.iq.fu_full::FloatMisc                   0      0.00%     94.15% # attempts to use FU when none available
system.cpu0.iq.fu_full::FloatSqrt                   0      0.00%     94.15% # attempts to use FU when none available
system.cpu0.iq.fu_full::SimdAdd                     0      0.00%     94.15% # attempts to use FU when none available
system.cpu0.iq.fu_full::SimdAddAcc                  0      0.00%     94.15% # attempts to use FU when none available
system.cpu0.iq.fu_full::SimdAlu                     0      0.00%     94.15% # attempts to use FU when none available
system.cpu0.iq.fu_full::SimdCmp                     0      0.00%     94.15% # attempts to use FU when none available
system.cpu0.iq.fu_full::SimdCvt                     0      0.00%     94.15% # attempts to use FU when none available
system.cpu0.iq.fu_full::SimdMisc                    0      0.00%     94.15% # attempts to use FU when none available
system.cpu0.iq.fu_full::SimdMult                    0      0.00%     94.15% # attempts to use FU when none available
system.cpu0.iq.fu_full::SimdMultAcc                 0      0.00%     94.15% # attempts to use FU when none available
system.cpu0.iq.fu_full::SimdShift                   0      0.00%     94.15% # attempts to use FU when none available
system.cpu0.iq.fu_full::SimdShiftAcc                0      0.00%     94.15% # attempts to use FU when none available
system.cpu0.iq.fu_full::SimdSqrt                    0      0.00%     94.15% # attempts to use FU when none available
system.cpu0.iq.fu_full::SimdFloatAdd                0      0.00%     94.15% # attempts to use FU when none available
system.cpu0.iq.fu_full::SimdFloatAlu                0      0.00%     94.15% # attempts to use FU when none available
system.cpu0.iq.fu_full::SimdFloatCmp                0      0.00%     94.15% # attempts to use FU when none available
system.cpu0.iq.fu_full::SimdFloatCvt                0      0.00%     94.15% # attempts to use FU when none available
system.cpu0.iq.fu_full::SimdFloatDiv                0      0.00%     94.15% # attempts to use FU when none available
system.cpu0.iq.fu_full::SimdFloatMisc               0      0.00%     94.15% # attempts to use FU when none available
system.cpu0.iq.fu_full::SimdFloatMult               0      0.00%     94.15% # attempts to use FU when none available
system.cpu0.iq.fu_full::SimdFloatMultAcc            0      0.00%     94.15% # attempts to use FU when none available
system.cpu0.iq.fu_full::SimdFloatSqrt               0      0.00%     94.15% # attempts to use FU when none available
system.cpu0.iq.fu_full::MemRead               2443561      3.76%     97.91% # attempts to use FU when none available
system.cpu0.iq.fu_full::MemWrite              1354673      2.09%    100.00% # attempts to use FU when none available
system.cpu0.iq.fu_full::FloatMemRead                0      0.00%    100.00% # attempts to use FU when none available
system.cpu0.iq.fu_full::FloatMemWrite               0      0.00%    100.00% # attempts to use FU when none available
system.cpu0.iq.fu_full::IprAccess                   0      0.00%    100.00% # attempts to use FU when none available
system.cpu0.iq.fu_full::InstPrefetch                0      0.00%    100.00% # attempts to use FU when none available
system.cpu0.iq.FU_type_0::No_OpClass                0      0.00%      0.00% # Type of FU issued
system.cpu0.iq.FU_type_0::IntAlu             78741388     76.97%     76.97% # Type of FU issued
system.cpu0.iq.FU_type_0::IntMult              523587      0.51%     77.48% # Type of FU issued
system.cpu0.iq.FU_type_0::IntDiv                    0      0.00%     77.48% # Type of FU issued
system.cpu0.iq.FU_type_0::FloatAdd                  0      0.00%     77.48% # Type of FU issued
system.cpu0.iq.FU_type_0::FloatCmp                  0      0.00%     77.48% # Type of FU issued
system.cpu0.iq.FU_type_0::FloatCvt                  0      0.00%     77.48% # Type of FU issued
system.cpu0.iq.FU_type_0::FloatMult                 0      0.00%     77.48% # Type of FU issued
system.cpu0.iq.FU_type_0::FloatMultAcc              0      0.00%     77.48% # Type of FU issued
system.cpu0.iq.FU_type_0::FloatDiv                  0      0.00%     77.48% # Type of FU issued
system.cpu0.iq.FU_type_0::FloatMisc                 0      0.00%     77.48% # Type of FU issued
system.cpu0.iq.FU_type_0::FloatSqrt                 0      0.00%     77.48% # Type of FU issued
system.cpu0.iq.FU_type_0::SimdAdd                   0      0.00%     77.48% # Type of FU issued
system.cpu0.iq.FU_type_0::SimdAddAcc                0      0.00%     77.48% # Type of FU issued
system.cpu0.iq.FU_type_0::SimdAlu                   0      0.00%     77.48% # Type of FU issued
system.cpu0.iq.FU_type_0::SimdCmp                   0      0.00%     77.48% # Type of FU issued
system.cpu0.iq.FU_type_0::SimdCvt                   0      0.00%     77.48% # Type of FU issued
system.cpu0.iq.FU_type_0::SimdMisc                  0      0.00%     77.48% # Type of FU issued
system.cpu0.iq.FU_type_0::SimdMult                  0      0.00%     77.48% # Type of FU issued
system.cpu0.iq.FU_type_0::SimdMultAcc               0      0.00%     77.48% # Type of FU issued
system.cpu0.iq.FU_type_0::SimdShift                 0      0.00%     77.48% # Type of FU issued
system.cpu0.iq.FU_type_0::SimdShiftAcc              0      0.00%     77.48% # Type of FU issued
system.cpu0.iq.FU_type_0::SimdSqrt                  0      0.00%     77.48% # Type of FU issued
system.cpu0.iq.FU_type_0::SimdFloatAdd              0      0.00%     77.48% # Type of FU issued
system.cpu0.iq.FU_type_0::SimdFloatAlu              0      0.00%     77.48% # Type of FU issued
system.cpu0.iq.FU_type_0::SimdFloatCmp              0      0.00%     77.48% # Type of FU issued
system.cpu0.iq.FU_type_0::SimdFloatCvt              0      0.00%     77.48% # Type of FU issued
system.cpu0.iq.FU_type_0::SimdFloatDiv              0      0.00%     77.48% # Type of FU issued
system.cpu0.iq.FU_type_0::SimdFloatMisc         11308      0.01%     77.49% # Type of FU issued
system.cpu0.iq.FU_type_0::SimdFloatMult             0      0.00%     77.49% # Type of FU issued
system.cpu0.iq.FU_type_0::SimdFloatMultAcc            0      0.00%     77.49% # Type of FU issued
system.cpu0.iq.FU_type_0::SimdFloatSqrt             0      0.00%     77.49% # Type of FU issued
system.cpu0.iq.FU_type_0::MemRead            14210245     13.89%     91.39% # Type of FU issued
system.cpu0.iq.FU_type_0::MemWrite            8812249      8.61%    100.00% # Type of FU issued
system.cpu0.iq.FU_type_0::FloatMemRead              0      0.00%    100.00% # Type of FU issued
system.cpu0.iq.FU_type_0::FloatMemWrite            16      0.00%    100.00% # Type of FU issued
system.cpu0.iq.FU_type_0::IprAccess                 0      0.00%    100.00% # Type of FU issued
system.cpu0.iq.FU_type_0::InstPrefetch              0      0.00%    100.00% # Type of FU issued
system.cpu0.iq.FU_type_0::total             102298793                       # Type of FU issued
system.cpu0.iq.rate                          1.168663                       # Inst issue rate
system.cpu0.iq.fu_busy_cnt                   64960657                       # FU busy when requested
system.cpu0.iq.fu_busy_rate                  0.635009                       # FU busy rate (busy events/executed inst)
system.cpu0.iq.int_inst_queue_reads         358459482                       # Number of integer instruction queue reads
system.cpu0.iq.int_inst_queue_writes        125262235                       # Number of integer instruction queue writes
system.cpu0.iq.int_inst_queue_wakeup_accesses    101923132                       # Number of integer instruction queue wakeup accesses
system.cpu0.iq.fp_inst_queue_reads                 32                       # Number of floating instruction queue reads
system.cpu0.iq.fp_inst_queue_writes                16                       # Number of floating instruction queue writes
system.cpu0.iq.fp_inst_queue_wakeup_accesses           16                       # Number of floating instruction queue wakeup accesses
system.cpu0.iq.int_alu_accesses             167259434                       # Number of integer alu accesses
system.cpu0.iq.fp_alu_accesses                     16                       # Number of floating point alu accesses
system.cpu0.iew.lsq.thread0.forwLoads         1895593                       # Number of loads that had data forwarded from stores
system.cpu0.iew.lsq.thread0.invAddrLoads            0                       # Number of loads ignored due to an invalid address
system.cpu0.iew.lsq.thread0.squashedLoads      1128206                       # Number of loads squashed
system.cpu0.iew.lsq.thread0.ignoredResponses          351                       # Number of memory responses ignored because the instruction is squashed
system.cpu0.iew.lsq.thread0.memOrderViolation         1788                       # Number of memory ordering violations
system.cpu0.iew.lsq.thread0.squashedStores       663263                       # Number of stores squashed
system.cpu0.iew.lsq.thread0.invAddrSwpfs            0                       # Number of software prefetches ignored due to an invalid address
system.cpu0.iew.lsq.thread0.blockedLoads            0                       # Number of blocked loads due to partial load-store forwarding
system.cpu0.iew.lsq.thread0.rescheduledLoads       149746                       # Number of loads that were rescheduled
system.cpu0.iew.lsq.thread0.cacheBlocked         1120                       # Number of times an access to memory failed due to the cache being blocked
system.cpu0.iew.iewIdleCycles                       0                       # Number of cycles IEW is idle
system.cpu0.iew.iewSquashCycles                406745                       # Number of cycles IEW is squashing
system.cpu0.iew.iewBlockCycles                1324063                       # Number of cycles IEW is blocking
system.cpu0.iew.iewUnblockCycles                20939                       # Number of cycles IEW is unblocking
system.cpu0.iew.iewDispatchedInsts          112864285                       # Number of instructions dispatched to IQ
system.cpu0.iew.iewDispSquashedInsts            82340                       # Number of squashed instructions skipped by dispatch
system.cpu0.iew.iewDispLoadInsts             14704675                       # Number of dispatched load instructions
system.cpu0.iew.iewDispStoreInsts             9321497                       # Number of dispatched store instructions
system.cpu0.iew.iewDispNonSpecInsts              9216                       # Number of dispatched non-speculative instructions
system.cpu0.iew.iewIQFullEvents                   211                       # Number of times the IQ has become full, causing a stall
system.cpu0.iew.iewLSQFullEvents                  970                       # Number of times the LSQ has become full, causing a stall
system.cpu0.iew.memOrderViolationEvents          1788                       # Number of memory order violations
system.cpu0.iew.predictedTakenIncorrect        217186                       # Number of branches that were predicted taken incorrectly
system.cpu0.iew.predictedNotTakenIncorrect       209566                       # Number of branches that were predicted not taken incorrectly
system.cpu0.iew.branchMispredicts              426752                       # Number of branch mispredicts detected at execute
system.cpu0.iew.iewExecutedInsts            102158706                       # Number of executed instructions
system.cpu0.iew.iewExecLoadInsts             14162661                       # Number of load instructions executed
system.cpu0.iew.iewExecSquashedInsts           140087                       # Number of squashed instructions skipped in execute
system.cpu0.iew.exec_swp                            0                       # number of swp insts executed
system.cpu0.iew.exec_nop                           48                       # number of nop insts executed
system.cpu0.iew.exec_refs                    22948380                       # number of memory reference insts executed
system.cpu0.iew.exec_branches                15925762                       # Number of branches executed
system.cpu0.iew.exec_stores                   8785719                       # Number of stores executed
system.cpu0.iew.exec_rate                    1.167062                       # Inst execution rate
system.cpu0.iew.wb_sent                     101949181                       # cumulative count of insts sent to commit
system.cpu0.iew.wb_count                    101923148                       # cumulative count of insts written-back
system.cpu0.iew.wb_producers                 73511634                       # num instructions producing a value
system.cpu0.iew.wb_consumers                169752303                       # num instructions consuming a value
system.cpu0.iew.wb_rate                      1.164371                       # insts written-back per cycle
system.cpu0.iew.wb_fanout                    0.433052                       # average fanout of values written-back
system.cpu0.commit.commitSquashedInsts       12396366                       # The number of squashed insts skipped by commit
system.cpu0.commit.commitNonSpecStalls          17224                       # The number of times commit has been forced to stall to communicate backwards
system.cpu0.commit.branchMispredicts           402940                       # The number of times a branch was mispredicted
system.cpu0.commit.committed_per_cycle::samples     85717959                       # Number of insts commited each cycle
system.cpu0.commit.committed_per_cycle::mean     1.172076                       # Number of insts commited each cycle
system.cpu0.commit.committed_per_cycle::stdev     1.034677                       # Number of insts commited each cycle
system.cpu0.commit.committed_per_cycle::underflows            0      0.00%      0.00% # Number of insts commited each cycle
system.cpu0.commit.committed_per_cycle::0     11267730     13.15%     13.15% # Number of insts commited each cycle
system.cpu0.commit.committed_per_cycle::1     61104262     71.29%     84.43% # Number of insts commited each cycle
system.cpu0.commit.committed_per_cycle::2      8038279      9.38%     93.81% # Number of insts commited each cycle
system.cpu0.commit.committed_per_cycle::3      2451470      2.86%     96.67% # Number of insts commited each cycle
system.cpu0.commit.committed_per_cycle::4      1038259      1.21%     97.88% # Number of insts commited each cycle
system.cpu0.commit.committed_per_cycle::5       272356      0.32%     98.20% # Number of insts commited each cycle
system.cpu0.commit.committed_per_cycle::6       532553      0.62%     98.82% # Number of insts commited each cycle
system.cpu0.commit.committed_per_cycle::7       881780      1.03%     99.85% # Number of insts commited each cycle
system.cpu0.commit.committed_per_cycle::8       131270      0.15%    100.00% # Number of insts commited each cycle
system.cpu0.commit.committed_per_cycle::overflows            0      0.00%    100.00% # Number of insts commited each cycle
system.cpu0.commit.committed_per_cycle::min_value            0                       # Number of insts commited each cycle
system.cpu0.commit.committed_per_cycle::max_value            8                       # Number of insts commited each cycle
system.cpu0.commit.committed_per_cycle::total     85717959                       # Number of insts commited each cycle
system.cpu0.commit.committedInsts            88898875                       # Number of instructions committed
system.cpu0.commit.committedOps             100467984                       # Number of ops (including micro ops) committed
system.cpu0.commit.swp_count                        0                       # Number of s/w prefetches committed
system.cpu0.commit.refs                      22234703                       # Number of memory references committed
system.cpu0.commit.loads                     13576469                       # Number of loads committed
system.cpu0.commit.membars                       8830                       # Number of memory barriers committed
system.cpu0.commit.branches                  15777839                       # Number of branches committed
system.cpu0.commit.fp_insts                        16                       # Number of committed floating point instructions.
system.cpu0.commit.int_insts                 90841210                       # Number of committed integer instructions.
system.cpu0.commit.function_calls             2565221                       # Number of function calls committed.
system.cpu0.commit.op_class_0::No_OpClass            0      0.00%      0.00% # Class of committed instruction
system.cpu0.commit.op_class_0::IntAlu        77716825     77.35%     77.35% # Class of committed instruction
system.cpu0.commit.op_class_0::IntMult         505148      0.50%     77.86% # Class of committed instruction
system.cpu0.commit.op_class_0::IntDiv               0      0.00%     77.86% # Class of committed instruction
system.cpu0.commit.op_class_0::FloatAdd             0      0.00%     77.86% # Class of committed instruction
system.cpu0.commit.op_class_0::FloatCmp             0      0.00%     77.86% # Class of committed instruction
system.cpu0.commit.op_class_0::FloatCvt             0      0.00%     77.86% # Class of committed instruction
system.cpu0.commit.op_class_0::FloatMult            0      0.00%     77.86% # Class of committed instruction
system.cpu0.commit.op_class_0::FloatMultAcc            0      0.00%     77.86% # Class of committed instruction
system.cpu0.commit.op_class_0::FloatDiv             0      0.00%     77.86% # Class of committed instruction
system.cpu0.commit.op_class_0::FloatMisc            0      0.00%     77.86% # Class of committed instruction
system.cpu0.commit.op_class_0::FloatSqrt            0      0.00%     77.86% # Class of committed instruction
system.cpu0.commit.op_class_0::SimdAdd              0      0.00%     77.86% # Class of committed instruction
system.cpu0.commit.op_class_0::SimdAddAcc            0      0.00%     77.86% # Class of committed instruction
system.cpu0.commit.op_class_0::SimdAlu              0      0.00%     77.86% # Class of committed instruction
system.cpu0.commit.op_class_0::SimdCmp              0      0.00%     77.86% # Class of committed instruction
system.cpu0.commit.op_class_0::SimdCvt              0      0.00%     77.86% # Class of committed instruction
system.cpu0.commit.op_class_0::SimdMisc             0      0.00%     77.86% # Class of committed instruction
system.cpu0.commit.op_class_0::SimdMult             0      0.00%     77.86% # Class of committed instruction
system.cpu0.commit.op_class_0::SimdMultAcc            0      0.00%     77.86% # Class of committed instruction
system.cpu0.commit.op_class_0::SimdShift            0      0.00%     77.86% # Class of committed instruction
system.cpu0.commit.op_class_0::SimdShiftAcc            0      0.00%     77.86% # Class of committed instruction
system.cpu0.commit.op_class_0::SimdSqrt             0      0.00%     77.86% # Class of committed instruction
system.cpu0.commit.op_class_0::SimdFloatAdd            0      0.00%     77.86% # Class of committed instruction
system.cpu0.commit.op_class_0::SimdFloatAlu            0      0.00%     77.86% # Class of committed instruction
system.cpu0.commit.op_class_0::SimdFloatCmp            0      0.00%     77.86% # Class of committed instruction
system.cpu0.commit.op_class_0::SimdFloatCvt            0      0.00%     77.86% # Class of committed instruction
system.cpu0.commit.op_class_0::SimdFloatDiv            0      0.00%     77.86% # Class of committed instruction
system.cpu0.commit.op_class_0::SimdFloatMisc        11308      0.01%     77.87% # Class of committed instruction
system.cpu0.commit.op_class_0::SimdFloatMult            0      0.00%     77.87% # Class of committed instruction
system.cpu0.commit.op_class_0::SimdFloatMultAcc            0      0.00%     77.87% # Class of committed instruction
system.cpu0.commit.op_class_0::SimdFloatSqrt            0      0.00%     77.87% # Class of committed instruction
system.cpu0.commit.op_class_0::MemRead       13576469     13.51%     91.38% # Class of committed instruction
system.cpu0.commit.op_class_0::MemWrite       8658218      8.62%    100.00% # Class of committed instruction
system.cpu0.commit.op_class_0::FloatMemRead            0      0.00%    100.00% # Class of committed instruction
system.cpu0.commit.op_class_0::FloatMemWrite           16      0.00%    100.00% # Class of committed instruction
system.cpu0.commit.op_class_0::IprAccess            0      0.00%    100.00% # Class of committed instruction
system.cpu0.commit.op_class_0::InstPrefetch            0      0.00%    100.00% # Class of committed instruction
system.cpu0.commit.op_class_0::total        100467984                       # Class of committed instruction
system.cpu0.commit.bw_lim_events               131270                       # number cycles where commit BW limit reached
system.cpu0.rob.rob_reads                   198422225                       # The number of ROB reads
system.cpu0.rob.rob_writes                  227451104                       # The number of ROB writes
system.cpu0.timesIdled                           4967                       # Number of times that the entire CPU went into an idle state and unscheduled itself
system.cpu0.idleCycles                          95030                       # Total number of cycles that the CPU has spent unscheduled due to idling
system.cpu0.committedInsts                   88898875                       # Number of Instructions Simulated
system.cpu0.committedOps                    100467984                       # Number of Ops (including micro ops) Simulated
system.cpu0.cpi                              0.984657                       # CPI: Cycles Per Instruction
system.cpu0.cpi_total                        0.984657                       # CPI: Total CPI of All Threads
system.cpu0.ipc                              1.015582                       # IPC: Instructions Per Cycle
system.cpu0.ipc_total                        1.015582                       # IPC: Total IPC of All Threads
system.cpu0.int_regfile_reads               120026509                       # number of integer regfile reads
system.cpu0.int_regfile_writes               70889662                       # number of integer regfile writes
system.cpu0.fp_regfile_reads                     1136                       # number of floating regfile reads
system.cpu0.cc_regfile_reads                351517898                       # number of cc regfile reads
system.cpu0.cc_regfile_writes                53103757                       # number of cc regfile writes
system.cpu0.misc_regfile_reads               22787185                       # number of misc regfile reads
system.cpu0.misc_regfile_writes                 14756                       # number of misc regfile writes
system.cpu0.dcache.tags.pwrStateResidencyTicks::UNDEFINED  87534926000                       # Cumulative time (in ticks) in various power states
system.cpu0.dcache.tags.replacements             9118                       # number of replacements
system.cpu0.dcache.tags.tagsinuse          228.985960                       # Cycle average of tags in use
system.cpu0.dcache.tags.total_refs           20150931                       # Total number of references to valid blocks.
system.cpu0.dcache.tags.sampled_refs             9372                       # Sample count of references to valid blocks.
system.cpu0.dcache.tags.avg_refs          2150.120679                       # Average number of references to valid blocks.
system.cpu0.dcache.tags.warmup_cycle      11922778500                       # Cycle when the warmup percentage was hit.
system.cpu0.dcache.tags.occ_blocks::cpu0.data   228.985960                       # Average occupied blocks per requestor
system.cpu0.dcache.tags.occ_percent::cpu0.data     0.894476                       # Average percentage of cache occupancy
system.cpu0.dcache.tags.occ_percent::total     0.894476                       # Average percentage of cache occupancy
system.cpu0.dcache.tags.occ_task_id_blocks::1024          254                       # Occupied blocks per task id
system.cpu0.dcache.tags.age_task_id_blocks_1024::0           26                       # Occupied blocks per task id
system.cpu0.dcache.tags.age_task_id_blocks_1024::1           90                       # Occupied blocks per task id
system.cpu0.dcache.tags.age_task_id_blocks_1024::2           63                       # Occupied blocks per task id
system.cpu0.dcache.tags.age_task_id_blocks_1024::3           55                       # Occupied blocks per task id
system.cpu0.dcache.tags.age_task_id_blocks_1024::4           20                       # Occupied blocks per task id
system.cpu0.dcache.tags.occ_task_id_percent::1024     0.992188                       # Percentage of cache occupancy per task id
system.cpu0.dcache.tags.tag_accesses         80719114                       # Number of tag accesses
system.cpu0.dcache.tags.data_accesses        80719114                       # Number of data accesses
system.cpu0.dcache.pwrStateResidencyTicks::UNDEFINED  87534926000                       # Cumulative time (in ticks) in various power states
system.cpu0.dcache.ReadReq_hits::cpu0.data     11650583                       # number of ReadReq hits
system.cpu0.dcache.ReadReq_hits::total       11650583                       # number of ReadReq hits
system.cpu0.dcache.WriteReq_hits::cpu0.data      8485945                       # number of WriteReq hits
system.cpu0.dcache.WriteReq_hits::total       8485945                       # number of WriteReq hits
system.cpu0.dcache.LoadLockedReq_hits::cpu0.data         5948                       # number of LoadLockedReq hits
system.cpu0.dcache.LoadLockedReq_hits::total         5948                       # number of LoadLockedReq hits
system.cpu0.dcache.StoreCondReq_hits::cpu0.data         4110                       # number of StoreCondReq hits
system.cpu0.dcache.StoreCondReq_hits::total         4110                       # number of StoreCondReq hits
system.cpu0.dcache.demand_hits::cpu0.data     20136528                       # number of demand (read+write) hits
system.cpu0.dcache.demand_hits::total        20136528                       # number of demand (read+write) hits
system.cpu0.dcache.overall_hits::cpu0.data     20136528                       # number of overall hits
system.cpu0.dcache.overall_hits::total       20136528                       # number of overall hits
system.cpu0.dcache.ReadReq_misses::cpu0.data         9729                       # number of ReadReq misses
system.cpu0.dcache.ReadReq_misses::total         9729                       # number of ReadReq misses
system.cpu0.dcache.WriteReq_misses::cpu0.data        17124                       # number of WriteReq misses
system.cpu0.dcache.WriteReq_misses::total        17124                       # number of WriteReq misses
system.cpu0.dcache.LoadLockedReq_misses::cpu0.data          494                       # number of LoadLockedReq misses
system.cpu0.dcache.LoadLockedReq_misses::total          494                       # number of LoadLockedReq misses
system.cpu0.dcache.StoreCondReq_misses::cpu0.data         1765                       # number of StoreCondReq misses
system.cpu0.dcache.StoreCondReq_misses::total         1765                       # number of StoreCondReq misses
system.cpu0.dcache.demand_misses::cpu0.data        26853                       # number of demand (read+write) misses
system.cpu0.dcache.demand_misses::total         26853                       # number of demand (read+write) misses
system.cpu0.dcache.overall_misses::cpu0.data        26853                       # number of overall misses
system.cpu0.dcache.overall_misses::total        26853                       # number of overall misses
system.cpu0.dcache.ReadReq_miss_latency::cpu0.data    225451000                       # number of ReadReq miss cycles
system.cpu0.dcache.ReadReq_miss_latency::total    225451000                       # number of ReadReq miss cycles
system.cpu0.dcache.WriteReq_miss_latency::cpu0.data    366732760                       # number of WriteReq miss cycles
system.cpu0.dcache.WriteReq_miss_latency::total    366732760                       # number of WriteReq miss cycles
system.cpu0.dcache.LoadLockedReq_miss_latency::cpu0.data      4801000                       # number of LoadLockedReq miss cycles
system.cpu0.dcache.LoadLockedReq_miss_latency::total      4801000                       # number of LoadLockedReq miss cycles
system.cpu0.dcache.StoreCondReq_miss_latency::cpu0.data     17276000                       # number of StoreCondReq miss cycles
system.cpu0.dcache.StoreCondReq_miss_latency::total     17276000                       # number of StoreCondReq miss cycles
system.cpu0.dcache.StoreCondFailReq_miss_latency::cpu0.data       554000                       # number of StoreCondFailReq miss cycles
system.cpu0.dcache.StoreCondFailReq_miss_latency::total       554000                       # number of StoreCondFailReq miss cycles
system.cpu0.dcache.demand_miss_latency::cpu0.data    592183760                       # number of demand (read+write) miss cycles
system.cpu0.dcache.demand_miss_latency::total    592183760                       # number of demand (read+write) miss cycles
system.cpu0.dcache.overall_miss_latency::cpu0.data    592183760                       # number of overall miss cycles
system.cpu0.dcache.overall_miss_latency::total    592183760                       # number of overall miss cycles
system.cpu0.dcache.ReadReq_accesses::cpu0.data     11660312                       # number of ReadReq accesses(hits+misses)
system.cpu0.dcache.ReadReq_accesses::total     11660312                       # number of ReadReq accesses(hits+misses)
system.cpu0.dcache.WriteReq_accesses::cpu0.data      8503069                       # number of WriteReq accesses(hits+misses)
system.cpu0.dcache.WriteReq_accesses::total      8503069                       # number of WriteReq accesses(hits+misses)
system.cpu0.dcache.LoadLockedReq_accesses::cpu0.data         6442                       # number of LoadLockedReq accesses(hits+misses)
system.cpu0.dcache.LoadLockedReq_accesses::total         6442                       # number of LoadLockedReq accesses(hits+misses)
system.cpu0.dcache.StoreCondReq_accesses::cpu0.data         5875                       # number of StoreCondReq accesses(hits+misses)
system.cpu0.dcache.StoreCondReq_accesses::total         5875                       # number of StoreCondReq accesses(hits+misses)
system.cpu0.dcache.demand_accesses::cpu0.data     20163381                       # number of demand (read+write) accesses
system.cpu0.dcache.demand_accesses::total     20163381                       # number of demand (read+write) accesses
system.cpu0.dcache.overall_accesses::cpu0.data     20163381                       # number of overall (read+write) accesses
system.cpu0.dcache.overall_accesses::total     20163381                       # number of overall (read+write) accesses
system.cpu0.dcache.ReadReq_miss_rate::cpu0.data     0.000834                       # miss rate for ReadReq accesses
system.cpu0.dcache.ReadReq_miss_rate::total     0.000834                       # miss rate for ReadReq accesses
system.cpu0.dcache.WriteReq_miss_rate::cpu0.data     0.002014                       # miss rate for WriteReq accesses
system.cpu0.dcache.WriteReq_miss_rate::total     0.002014                       # miss rate for WriteReq accesses
system.cpu0.dcache.LoadLockedReq_miss_rate::cpu0.data     0.076684                       # miss rate for LoadLockedReq accesses
system.cpu0.dcache.LoadLockedReq_miss_rate::total     0.076684                       # miss rate for LoadLockedReq accesses
system.cpu0.dcache.StoreCondReq_miss_rate::cpu0.data     0.300426                       # miss rate for StoreCondReq accesses
system.cpu0.dcache.StoreCondReq_miss_rate::total     0.300426                       # miss rate for StoreCondReq accesses
system.cpu0.dcache.demand_miss_rate::cpu0.data     0.001332                       # miss rate for demand accesses
system.cpu0.dcache.demand_miss_rate::total     0.001332                       # miss rate for demand accesses
system.cpu0.dcache.overall_miss_rate::cpu0.data     0.001332                       # miss rate for overall accesses
system.cpu0.dcache.overall_miss_rate::total     0.001332                       # miss rate for overall accesses
system.cpu0.dcache.ReadReq_avg_miss_latency::cpu0.data 23173.090760                       # average ReadReq miss latency
system.cpu0.dcache.ReadReq_avg_miss_latency::total 23173.090760                       # average ReadReq miss latency
system.cpu0.dcache.WriteReq_avg_miss_latency::cpu0.data 21416.302266                       # average WriteReq miss latency
system.cpu0.dcache.WriteReq_avg_miss_latency::total 21416.302266                       # average WriteReq miss latency
system.cpu0.dcache.LoadLockedReq_avg_miss_latency::cpu0.data  9718.623482                       # average LoadLockedReq miss latency
system.cpu0.dcache.LoadLockedReq_avg_miss_latency::total  9718.623482                       # average LoadLockedReq miss latency
system.cpu0.dcache.StoreCondReq_avg_miss_latency::cpu0.data  9788.101983                       # average StoreCondReq miss latency
system.cpu0.dcache.StoreCondReq_avg_miss_latency::total  9788.101983                       # average StoreCondReq miss latency
system.cpu0.dcache.StoreCondFailReq_avg_miss_latency::cpu0.data          inf                       # average StoreCondFailReq miss latency
system.cpu0.dcache.StoreCondFailReq_avg_miss_latency::total          inf                       # average StoreCondFailReq miss latency
system.cpu0.dcache.demand_avg_miss_latency::cpu0.data 22052.797080                       # average overall miss latency
system.cpu0.dcache.demand_avg_miss_latency::total 22052.797080                       # average overall miss latency
system.cpu0.dcache.overall_avg_miss_latency::cpu0.data 22052.797080                       # average overall miss latency
system.cpu0.dcache.overall_avg_miss_latency::total 22052.797080                       # average overall miss latency
system.cpu0.dcache.blocked_cycles::no_mshrs         4939                       # number of cycles access was blocked
system.cpu0.dcache.blocked_cycles::no_targets            0                       # number of cycles access was blocked
system.cpu0.dcache.blocked::no_mshrs              891                       # number of cycles access was blocked
system.cpu0.dcache.blocked::no_targets              0                       # number of cycles access was blocked
system.cpu0.dcache.avg_blocked_cycles::no_mshrs     5.543210                       # average number of cycles each access was blocked
system.cpu0.dcache.avg_blocked_cycles::no_targets          nan                       # average number of cycles each access was blocked
system.cpu0.dcache.writebacks::writebacks         7209                       # number of writebacks
system.cpu0.dcache.writebacks::total             7209                       # number of writebacks
system.cpu0.dcache.ReadReq_mshr_hits::cpu0.data         3657                       # number of ReadReq MSHR hits
system.cpu0.dcache.ReadReq_mshr_hits::total         3657                       # number of ReadReq MSHR hits
system.cpu0.dcache.WriteReq_mshr_hits::cpu0.data         5463                       # number of WriteReq MSHR hits
system.cpu0.dcache.WriteReq_mshr_hits::total         5463                       # number of WriteReq MSHR hits
system.cpu0.dcache.LoadLockedReq_mshr_hits::cpu0.data          142                       # number of LoadLockedReq MSHR hits
system.cpu0.dcache.LoadLockedReq_mshr_hits::total          142                       # number of LoadLockedReq MSHR hits
system.cpu0.dcache.demand_mshr_hits::cpu0.data         9120                       # number of demand (read+write) MSHR hits
system.cpu0.dcache.demand_mshr_hits::total         9120                       # number of demand (read+write) MSHR hits
system.cpu0.dcache.overall_mshr_hits::cpu0.data         9120                       # number of overall MSHR hits
system.cpu0.dcache.overall_mshr_hits::total         9120                       # number of overall MSHR hits
system.cpu0.dcache.ReadReq_mshr_misses::cpu0.data         6072                       # number of ReadReq MSHR misses
system.cpu0.dcache.ReadReq_mshr_misses::total         6072                       # number of ReadReq MSHR misses
system.cpu0.dcache.WriteReq_mshr_misses::cpu0.data        11661                       # number of WriteReq MSHR misses
system.cpu0.dcache.WriteReq_mshr_misses::total        11661                       # number of WriteReq MSHR misses
system.cpu0.dcache.LoadLockedReq_mshr_misses::cpu0.data          352                       # number of LoadLockedReq MSHR misses
system.cpu0.dcache.LoadLockedReq_mshr_misses::total          352                       # number of LoadLockedReq MSHR misses
system.cpu0.dcache.StoreCondReq_mshr_misses::cpu0.data         1765                       # number of StoreCondReq MSHR misses
system.cpu0.dcache.StoreCondReq_mshr_misses::total         1765                       # number of StoreCondReq MSHR misses
system.cpu0.dcache.demand_mshr_misses::cpu0.data        17733                       # number of demand (read+write) MSHR misses
system.cpu0.dcache.demand_mshr_misses::total        17733                       # number of demand (read+write) MSHR misses
system.cpu0.dcache.overall_mshr_misses::cpu0.data        17733                       # number of overall MSHR misses
system.cpu0.dcache.overall_mshr_misses::total        17733                       # number of overall MSHR misses
system.cpu0.dcache.ReadReq_mshr_miss_latency::cpu0.data    105474000                       # number of ReadReq MSHR miss cycles
system.cpu0.dcache.ReadReq_mshr_miss_latency::total    105474000                       # number of ReadReq MSHR miss cycles
system.cpu0.dcache.WriteReq_mshr_miss_latency::cpu0.data    187786386                       # number of WriteReq MSHR miss cycles
system.cpu0.dcache.WriteReq_mshr_miss_latency::total    187786386                       # number of WriteReq MSHR miss cycles
system.cpu0.dcache.LoadLockedReq_mshr_miss_latency::cpu0.data      2579000                       # number of LoadLockedReq MSHR miss cycles
system.cpu0.dcache.LoadLockedReq_mshr_miss_latency::total      2579000                       # number of LoadLockedReq MSHR miss cycles
system.cpu0.dcache.StoreCondReq_mshr_miss_latency::cpu0.data     13828500                       # number of StoreCondReq MSHR miss cycles
system.cpu0.dcache.StoreCondReq_mshr_miss_latency::total     13828500                       # number of StoreCondReq MSHR miss cycles
system.cpu0.dcache.StoreCondFailReq_mshr_miss_latency::cpu0.data       461500                       # number of StoreCondFailReq MSHR miss cycles
system.cpu0.dcache.StoreCondFailReq_mshr_miss_latency::total       461500                       # number of StoreCondFailReq MSHR miss cycles
system.cpu0.dcache.demand_mshr_miss_latency::cpu0.data    293260386                       # number of demand (read+write) MSHR miss cycles
system.cpu0.dcache.demand_mshr_miss_latency::total    293260386                       # number of demand (read+write) MSHR miss cycles
system.cpu0.dcache.overall_mshr_miss_latency::cpu0.data    293260386                       # number of overall MSHR miss cycles
[...]
system.l2.overall_avg_mshr_miss_latency::cpu3.inst 52606.062290                       # average overall mshr miss latency
system.l2.overall_avg_mshr_miss_latency::cpu3.data 51663.290822                       # average overall mshr miss latency
system.l2.overall_avg_mshr_miss_latency::cpu4.inst 52399.814159                       # average overall mshr miss latency
system.l2.overall_avg_mshr_miss_latency::cpu4.data 51882.014026                       # average overall mshr miss latency
system.l2.overall_avg_mshr_miss_latency::cpu5.inst 52520.531223                       # average overall mshr miss latency
system.l2.overall_avg_mshr_miss_latency::cpu5.data 51750.727536                       # average overall mshr miss latency
system.l2.overall_avg_mshr_miss_latency::cpu6.inst 52414.465409                       # average overall mshr miss latency
system.l2.overall_avg_mshr_miss_latency::cpu6.data 51720.906176                       # average overall mshr miss latency
system.l2.overall_avg_mshr_miss_latency::cpu7.inst 51621.467539                       # average overall mshr miss latency
system.l2.overall_avg_mshr_miss_latency::cpu7.data 52015.502980                       # average overall mshr miss latency
system.l2.overall_avg_mshr_miss_latency::total 51979.131876                       # average overall mshr miss latency
system.membus.snoop_filter.tot_requests         47471                       # Total number of requests made to the snoop filter.
system.membus.snoop_filter.hit_single_requests        32834                       # Number of requests hitting in the snoop filter with a single holder of the requested data.
system.membus.snoop_filter.hit_multi_requests            0                       # Number of requests hitting in the snoop filter with multiple (>1) holders of the requested data.
system.membus.snoop_filter.tot_snoops               0                       # Total number of snoops made to the snoop filter.
system.membus.snoop_filter.hit_single_snoops            0                       # Number of snoops hitting in the snoop filter with a single holder of the requested data.
system.membus.snoop_filter.hit_multi_snoops            0                       # Number of snoops hitting in the snoop filter with multiple (>1) holders of the requested data.
system.membus.pwrStateResidencyTicks::UNDEFINED  87534926000                       # Cumulative time (in ticks) in various power states
system.membus.trans_dist::ReadResp              15113                       # Transaction distribution
system.membus.trans_dist::WritebackDirty         5021                       # Transaction distribution
system.membus.trans_dist::CleanEvict             6503                       # Transaction distribution
system.membus.trans_dist::UpgradeReq             5090                       # Transaction distribution
system.membus.trans_dist::SCUpgradeReq           8504                       # Transaction distribution
system.membus.trans_dist::ReadExReq              5551                       # Transaction distribution
system.membus.trans_dist::ReadExResp             5460                       # Transaction distribution
system.membus.trans_dist::ReadSharedReq         15113                       # Transaction distribution
system.membus.pkt_count_system.l2.mem_side::system.physmem.port        66355                       # Packet count per connected master and slave (bytes)
system.membus.pkt_count::total                  66355                       # Packet count per connected master and slave (bytes)
system.membus.pkt_size_system.l2.mem_side::system.physmem.port      1638016                       # Cumulative packet size per connected master and slave (bytes)
system.membus.pkt_size::total                 1638016                       # Cumulative packet size per connected master and slave (bytes)
system.membus.snoops                            12320                       # Total snoops (count)
system.membus.snoopTraffic                          0                       # Total snoop traffic (bytes)
system.membus.snoop_fanout::samples             35743                       # Request fanout histogram
system.membus.snoop_fanout::mean                    0                       # Request fanout histogram
system.membus.snoop_fanout::stdev                   0                       # Request fanout histogram
system.membus.snoop_fanout::underflows              0      0.00%      0.00% # Request fanout histogram
system.membus.snoop_fanout::0                   35743    100.00%    100.00% # Request fanout histogram
system.membus.snoop_fanout::1                       0      0.00%    100.00% # Request fanout histogram
system.membus.snoop_fanout::overflows               0      0.00%    100.00% # Request fanout histogram
system.membus.snoop_fanout::min_value               0                       # Request fanout histogram
system.membus.snoop_fanout::max_value               0                       # Request fanout histogram
system.membus.snoop_fanout::total               35743                       # Request fanout histogram
system.membus.reqLayer0.occupancy            67969710                       # Layer occupancy (ticks)
system.membus.reqLayer0.utilization               0.1                       # Layer utilization (%)
system.membus.respLayer1.occupancy          102865000                       # Layer occupancy (ticks)
system.membus.respLayer1.utilization              0.1                       # Layer utilization (%)
system.tol2bus.snoop_filter.tot_requests      1666127                       # Total number of requests made to the snoop filter.
system.tol2bus.snoop_filter.hit_single_requests       444794                       # Number of requests hitting in the snoop filter with a single holder of the requested data.
system.tol2bus.snoop_filter.hit_multi_requests       896993                       # Number of requests hitting in the snoop filter with multiple (>1) holders of the requested data.
system.tol2bus.snoop_filter.tot_snoops          16817                       # Total number of snoops made to the snoop filter.
system.tol2bus.snoop_filter.hit_single_snoops         8917                       # Number of snoops hitting in the snoop filter with a single holder of the requested data.
system.tol2bus.snoop_filter.hit_multi_snoops         7900                       # Number of snoops hitting in the snoop filter with multiple (>1) holders of the requested data.
system.tol2bus.pwrStateResidencyTicks::UNDEFINED  87534926000                       # Cumulative time (in ticks) in various power states
system.tol2bus.trans_dist::ReadResp            820791                       # Transaction distribution
system.tol2bus.trans_dist::ReadRespWithInvalidate           18                       # Transaction distribution
system.tol2bus.trans_dist::WritebackDirty        19353                       # Transaction distribution
system.tol2bus.trans_dist::WritebackClean       785213                       # Transaction distribution
system.tol2bus.trans_dist::CleanEvict           30575                       # Transaction distribution
system.tol2bus.trans_dist::UpgradeReq            5872                       # Transaction distribution
system.tol2bus.trans_dist::SCUpgradeReq          8639                       # Transaction distribution
system.tol2bus.trans_dist::UpgradeResp          14511                       # Transaction distribution
system.tol2bus.trans_dist::SCUpgradeFailReq          335                       # Transaction distribution
system.tol2bus.trans_dist::UpgradeFailResp          335                       # Transaction distribution
system.tol2bus.trans_dist::ReadExReq            22387                       # Transaction distribution
system.tol2bus.trans_dist::ReadExResp           22387                       # Transaction distribution
system.tol2bus.trans_dist::ReadCleanReq        787281                       # Transaction distribution
system.tol2bus.trans_dist::ReadSharedReq        33528                       # Transaction distribution
system.tol2bus.pkt_count_system.cpu0.icache.mem_side::system.l2.cpu_side       915180                       # Packet count per connected master and slave (bytes)
system.tol2bus.pkt_count_system.cpu0.dcache.mem_side::system.l2.cpu_side        39018                       # Packet count per connected master and slave (bytes)
system.tol2bus.pkt_count_system.cpu1.icache.mem_side::system.l2.cpu_side       218336                       # Packet count per connected master and slave (bytes)
system.tol2bus.pkt_count_system.cpu1.dcache.mem_side::system.l2.cpu_side        19645                       # Packet count per connected master and slave (bytes)
system.tol2bus.pkt_count_system.cpu2.icache.mem_side::system.l2.cpu_side       218246                       # Packet count per connected master and slave (bytes)
system.tol2bus.pkt_count_system.cpu2.dcache.mem_side::system.l2.cpu_side         7879                       # Packet count per connected master and slave (bytes)
system.tol2bus.pkt_count_system.cpu3.icache.mem_side::system.l2.cpu_side       214898                       # Packet count per connected master and slave (bytes)
system.tol2bus.pkt_count_system.cpu3.dcache.mem_side::system.l2.cpu_side         8768                       # Packet count per connected master and slave (bytes)
system.tol2bus.pkt_count_system.cpu4.icache.mem_side::system.l2.cpu_side       217772                       # Packet count per connected master and slave (bytes)
system.tol2bus.pkt_count_system.cpu4.dcache.mem_side::system.l2.cpu_side        13341                       # Packet count per connected master and slave (bytes)
system.tol2bus.pkt_count_system.cpu5.icache.mem_side::system.l2.cpu_side       218082                       # Packet count per connected master and slave (bytes)
system.tol2bus.pkt_count_system.cpu5.dcache.mem_side::system.l2.cpu_side        13188                       # Packet count per connected master and slave (bytes)
system.tol2bus.pkt_count_system.cpu6.icache.mem_side::system.l2.cpu_side       214016                       # Packet count per connected master and slave (bytes)
system.tol2bus.pkt_count_system.cpu6.dcache.mem_side::system.l2.cpu_side        10747                       # Packet count per connected master and slave (bytes)
system.tol2bus.pkt_count_system.cpu7.icache.mem_side::system.l2.cpu_side       143219                       # Packet count per connected master and slave (bytes)
system.tol2bus.pkt_count_system.cpu7.dcache.mem_side::system.l2.cpu_side         7705                       # Packet count per connected master and slave (bytes)
system.tol2bus.pkt_count::total               2480040                       # Packet count per connected master and slave (bytes)
system.tol2bus.pkt_size_system.cpu0.icache.mem_side::system.l2.cpu_side     39041856                       # Cumulative packet size per connected master and slave (bytes)
system.tol2bus.pkt_size_system.cpu0.dcache.mem_side::system.l2.cpu_side      1066496                       # Cumulative packet size per connected master and slave (bytes)
system.tol2bus.pkt_size_system.cpu1.icache.mem_side::system.l2.cpu_side      9310080                       # Cumulative packet size per connected master and slave (bytes)
system.tol2bus.pkt_size_system.cpu1.dcache.mem_side::system.l2.cpu_side       280128                       # Cumulative packet size per connected master and slave (bytes)
system.tol2bus.pkt_size_system.cpu2.icache.mem_side::system.l2.cpu_side      9306368                       # Cumulative packet size per connected master and slave (bytes)
system.tol2bus.pkt_size_system.cpu2.dcache.mem_side::system.l2.cpu_side       172544                       # Cumulative packet size per connected master and slave (bytes)
system.tol2bus.pkt_size_system.cpu3.icache.mem_side::system.l2.cpu_side      9163520                       # Cumulative packet size per connected master and slave (bytes)
system.tol2bus.pkt_size_system.cpu3.dcache.mem_side::system.l2.cpu_side       183488                       # Cumulative packet size per connected master and slave (bytes)
system.tol2bus.pkt_size_system.cpu4.icache.mem_side::system.l2.cpu_side      9286016                       # Cumulative packet size per connected master and slave (bytes)
system.tol2bus.pkt_size_system.cpu4.dcache.mem_side::system.l2.cpu_side       200768                       # Cumulative packet size per connected master and slave (bytes)
system.tol2bus.pkt_size_system.cpu5.icache.mem_side::system.l2.cpu_side      9299008                       # Cumulative packet size per connected master and slave (bytes)
system.tol2bus.pkt_size_system.cpu5.dcache.mem_side::system.l2.cpu_side       207168                       # Cumulative packet size per connected master and slave (bytes)
system.tol2bus.pkt_size_system.cpu6.icache.mem_side::system.l2.cpu_side      9125888                       # Cumulative packet size per connected master and slave (bytes)
system.tol2bus.pkt_size_system.cpu6.dcache.mem_side::system.l2.cpu_side       241152                       # Cumulative packet size per connected master and slave (bytes)
system.tol2bus.pkt_size_system.cpu7.icache.mem_side::system.l2.cpu_side      6105216                       # Cumulative packet size per connected master and slave (bytes)
system.tol2bus.pkt_size_system.cpu7.dcache.mem_side::system.l2.cpu_side       125696                       # Cumulative packet size per connected master and slave (bytes)
system.tol2bus.pkt_size::total              103115392                       # Cumulative packet size per connected master and slave (bytes)
system.tol2bus.snoops                           71185                       # Total snoops (count)
system.tol2bus.snoopTraffic                   2362816                       # Total snoop traffic (bytes)
system.tol2bus.snoop_fanout::samples           885102                       # Request fanout histogram
system.tol2bus.snoop_fanout::mean            1.904958                       # Request fanout histogram
system.tol2bus.snoop_fanout::stdev           2.224519                       # Request fanout histogram
system.tol2bus.snoop_fanout::underflows             0      0.00%      0.00% # Request fanout histogram
system.tol2bus.snoop_fanout::0                 334625     37.81%     37.81% # Request fanout histogram
system.tol2bus.snoop_fanout::1                 143618     16.23%     54.03% # Request fanout histogram
system.tol2bus.snoop_fanout::2                 122672     13.86%     67.89% # Request fanout histogram
system.tol2bus.snoop_fanout::3                 124981     14.12%     82.01% # Request fanout histogram
system.tol2bus.snoop_fanout::4                  38992      4.41%     86.42% # Request fanout histogram
system.tol2bus.snoop_fanout::5                  37979      4.29%     90.71% # Request fanout histogram
system.tol2bus.snoop_fanout::6                  38557      4.36%     95.07% # Request fanout histogram
system.tol2bus.snoop_fanout::7                  31811      3.59%     98.66% # Request fanout histogram
system.tol2bus.snoop_fanout::8                   2829      0.32%     98.98% # Request fanout histogram
system.tol2bus.snoop_fanout::9                   2422      0.27%     99.25% # Request fanout histogram
system.tol2bus.snoop_fanout::10                  2127      0.24%     99.49% # Request fanout histogram
system.tol2bus.snoop_fanout::11                  1406      0.16%     99.65% # Request fanout histogram
system.tol2bus.snoop_fanout::12                   909      0.10%     99.75% # Request fanout histogram
system.tol2bus.snoop_fanout::13                   837      0.09%     99.85% # Request fanout histogram
system.tol2bus.snoop_fanout::14                   739      0.08%     99.93% # Request fanout histogram
system.tol2bus.snoop_fanout::15                   574      0.06%    100.00% # Request fanout histogram
system.tol2bus.snoop_fanout::16                    24      0.00%    100.00% # Request fanout histogram
system.tol2bus.snoop_fanout::overflows              0      0.00%    100.00% # Request fanout histogram
system.tol2bus.snoop_fanout::min_value              0                       # Request fanout histogram
system.tol2bus.snoop_fanout::max_value             16                       # Request fanout histogram
system.tol2bus.snoop_fanout::total             885102                       # Request fanout histogram
system.tol2bus.reqLayer0.occupancy         1632655905                       # Layer occupancy (ticks)
system.tol2bus.reqLayer0.utilization              1.9                       # Layer utilization (%)
system.tol2bus.respLayer0.occupancy         457887062                       # Layer occupancy (ticks)
system.tol2bus.respLayer0.utilization             0.5                       # Layer utilization (%)
system.tol2bus.respLayer1.occupancy          26322327                       # Layer occupancy (ticks)
system.tol2bus.respLayer1.utilization             0.0                       # Layer utilization (%)
system.tol2bus.respLayer4.occupancy         109503934                       # Layer occupancy (ticks)
system.tol2bus.respLayer4.utilization             0.1                       # Layer utilization (%)
system.tol2bus.respLayer5.occupancy          16723280                       # Layer occupancy (ticks)
system.tol2bus.respLayer5.utilization             0.0                       # Layer utilization (%)
system.tol2bus.respLayer8.occupancy         109453951                       # Layer occupancy (ticks)
system.tol2bus.respLayer8.utilization             0.1                       # Layer utilization (%)
system.tol2bus.respLayer9.occupancy           5496797                       # Layer occupancy (ticks)
system.tol2bus.respLayer9.utilization             0.0                       # Layer utilization (%)
system.tol2bus.respLayer12.occupancy        107725535                       # Layer occupancy (ticks)
system.tol2bus.respLayer12.utilization            0.1                       # Layer utilization (%)
system.tol2bus.respLayer13.occupancy          6376794                       # Layer occupancy (ticks)
system.tol2bus.respLayer13.utilization            0.0                       # Layer utilization (%)
system.tol2bus.respLayer16.occupancy        109217039                       # Layer occupancy (ticks)
system.tol2bus.respLayer16.utilization            0.1                       # Layer utilization (%)
system.tol2bus.respLayer17.occupancy         11322301                       # Layer occupancy (ticks)
system.tol2bus.respLayer17.utilization            0.0                       # Layer utilization (%)
system.tol2bus.respLayer20.occupancy        109386533                       # Layer occupancy (ticks)
system.tol2bus.respLayer20.utilization            0.1                       # Layer utilization (%)
system.tol2bus.respLayer21.occupancy         11013768                       # Layer occupancy (ticks)
system.tol2bus.respLayer21.utilization            0.0                       # Layer utilization (%)
system.tol2bus.respLayer24.occupancy        107305612                       # Layer occupancy (ticks)
system.tol2bus.respLayer24.utilization            0.1                       # Layer utilization (%)
system.tol2bus.respLayer25.occupancy          7757289                       # Layer occupancy (ticks)
system.tol2bus.respLayer25.utilization            0.0                       # Layer utilization (%)
system.tol2bus.respLayer28.occupancy         71887162                       # Layer occupancy (ticks)
system.tol2bus.respLayer28.utilization            0.1                       # Layer utilization (%)
system.tol2bus.respLayer29.occupancy          7183816                       # Layer occupancy (ticks)
system.tol2bus.respLayer29.utilization            0.0                       # Layer utilization (%)

---------- End Simulation Statistics   ----------
