
---------- Begin Simulation Statistics ----------
sim_seconds                                  0.136392                       # Number of seconds simulated
sim_ticks                                136391984000                       # Number of ticks simulated
final_tick                               136391984000                       # Number of ticks from beginning of simulation (restored from checkpoints and never reset)
sim_freq                                 1000000000000                       # Frequency of simulated ticks
host_inst_rate                                 245873                       # Simulator instruction rate (inst/s)
host_op_rate                                   270272                       # Simulator op (including micro ops) rate (op/s)
host_tick_rate                               43854492                       # Simulator tick rate (ticks/s)
host_mem_usage                                 721296                       # Number of bytes of host memory used
host_seconds                                  3110.10                       # Real time elapsed on the host
sim_insts                                   764690676                       # Number of instructions simulated
sim_ops                                     840574399                       # Number of ops (including micro ops) simulated
system.voltage_domain.voltage                       1                       # Voltage in Volts
system.clk_domain.clock                          1000                       # Clock period in ticks
system.physmem.pwrStateResidencyTicks::UNDEFINED 136391984000                       # Cumulative time (in ticks) in various power states
system.physmem.bytes_read::cpu0.inst         85375104                       # Number of bytes read from this memory
system.physmem.bytes_read::cpu0.data           892544                       # Number of bytes read from this memory
system.physmem.bytes_read::cpu1.inst         12624576                       # Number of bytes read from this memory
system.physmem.bytes_read::cpu1.data           320832                       # Number of bytes read from this memory
system.physmem.bytes_read::cpu2.inst         12564736                       # Number of bytes read from this memory
system.physmem.bytes_read::cpu2.data           320640                       # Number of bytes read from this memory
system.physmem.bytes_read::cpu3.inst         12600320                       # Number of bytes read from this memory
system.physmem.bytes_read::cpu3.data           328192                       # Number of bytes read from this memory
system.physmem.bytes_read::cpu4.inst         12380928                       # Number of bytes read from this memory
system.physmem.bytes_read::cpu4.data           318976                       # Number of bytes read from this memory
system.physmem.bytes_read::cpu5.inst         12297216                       # Number of bytes read from this memory
system.physmem.bytes_read::cpu5.data           317824                       # Number of bytes read from this memory
system.physmem.bytes_read::cpu6.inst         12628928                       # Number of bytes read from this memory
system.physmem.bytes_read::cpu6.data           325312                       # Number of bytes read from this memory
system.physmem.bytes_read::cpu7.inst          8420352                       # Number of bytes read from this memory
system.physmem.bytes_read::cpu7.data           225472                       # Number of bytes read from this memory
system.physmem.bytes_read::total            171941952                       # Number of bytes read from this memory
system.physmem.bytes_inst_read::cpu0.inst     85375104                       # Number of instructions bytes read from this memory
system.physmem.bytes_inst_read::cpu1.inst     12624576                       # Number of instructions bytes read from this memory
system.physmem.bytes_inst_read::cpu2.inst     12564736                       # Number of instructions bytes read from this memory
system.physmem.bytes_inst_read::cpu3.inst     12600320                       # Number of instructions bytes read from this memory
system.physmem.bytes_inst_read::cpu4.inst     12380928                       # Number of instructions bytes read from this memory
system.physmem.bytes_inst_read::cpu5.inst     12297216                       # Number of instructions bytes read from this memory
system.physmem.bytes_inst_read::cpu6.inst     12628928                       # Number of instructions bytes read from this memory
system.physmem.bytes_inst_read::cpu7.inst      8420352                       # Number of instructions bytes read from this memory
system.physmem.bytes_inst_read::total       168892160                       # Number of instructions bytes read from this memory
system.physmem.bytes_written::writebacks      1564864                       # Number of bytes written to this memory
system.physmem.bytes_written::total           1564864                       # Number of bytes written to this memory
system.physmem.num_reads::cpu0.inst           1333986                       # Number of read requests responded to by this memory
system.physmem.num_reads::cpu0.data             13946                       # Number of read requests responded to by this memory
system.physmem.num_reads::cpu1.inst            197259                       # Number of read requests responded to by this memory
system.physmem.num_reads::cpu1.data              5013                       # Number of read requests responded to by this memory
system.physmem.num_reads::cpu2.inst            196324                       # Number of read requests responded to by this memory
system.physmem.num_reads::cpu2.data              5010                       # Number of read requests responded to by this memory
system.physmem.num_reads::cpu3.inst            196880                       # Number of read requests responded to by this memory
system.physmem.num_reads::cpu3.data              5128                       # Number of read requests responded to by this memory
system.physmem.num_reads::cpu4.inst            193452                       # Number of read requests responded to by this memory
system.physmem.num_reads::cpu4.data              4984                       # Number of read requests responded to by this memory
system.physmem.num_reads::cpu5.inst            192144                       # Number of read requests responded to by this memory
system.physmem.num_reads::cpu5.data              4966                       # Number of read requests responded to by this memory
system.physmem.num_reads::cpu6.inst            197327                       # Number of read requests responded to by this memory
system.physmem.num_reads::cpu6.data              5083                       # Number of read requests responded to by this memory
system.physmem.num_reads::cpu7.inst            131568                       # Number of read requests responded to by this memory
system.physmem.num_reads::cpu7.data              3523                       # Number of read requests responded to by this memory
system.physmem.num_reads::total               2686593                       # Number of read requests responded to by this memory
system.physmem.num_writes::writebacks           24451                       # Number of write requests responded to by this memory
system.physmem.num_writes::total                24451                       # Number of write requests responded to by this memory
system.physmem.bw_read::cpu0.inst           625953971                       # Total read bandwidth from this memory (bytes/s)
system.physmem.bw_read::cpu0.data             6543962                       # Total read bandwidth from this memory (bytes/s)
system.physmem.bw_read::cpu1.inst            92560982                       # Total read bandwidth from this memory (bytes/s)
system.physmem.bw_read::cpu1.data             2352279                       # Total read bandwidth from this memory (bytes/s)
system.physmem.bw_read::cpu2.inst            92122247                       # Total read bandwidth from this memory (bytes/s)
system.physmem.bw_read::cpu2.data             2350871                       # Total read bandwidth from this memory (bytes/s)
system.physmem.bw_read::cpu3.inst            92383142                       # Total read bandwidth from this memory (bytes/s)
system.physmem.bw_read::cpu3.data             2406241                       # Total read bandwidth from this memory (bytes/s)
system.physmem.bw_read::cpu4.inst            90774602                       # Total read bandwidth from this memory (bytes/s)
system.physmem.bw_read::cpu4.data             2338671                       # Total read bandwidth from this memory (bytes/s)
system.physmem.bw_read::cpu5.inst            90160841                       # Total read bandwidth from this memory (bytes/s)
system.physmem.bw_read::cpu5.data             2330225                       # Total read bandwidth from this memory (bytes/s)
system.physmem.bw_read::cpu6.inst            92592890                       # Total read bandwidth from this memory (bytes/s)
system.physmem.bw_read::cpu6.data             2385126                       # Total read bandwidth from this memory (bytes/s)
system.physmem.bw_read::cpu7.inst            61736414                       # Total read bandwidth from this memory (bytes/s)
system.physmem.bw_read::cpu7.data             1653118                       # Total read bandwidth from this memory (bytes/s)
system.physmem.bw_read::total              1260645582                       # Total read bandwidth from this memory (bytes/s)
system.physmem.bw_inst_read::cpu0.inst      625953971                       # Instruction read bandwidth from this memory (bytes/s)
system.physmem.bw_inst_read::cpu1.inst       92560982                       # Instruction read bandwidth from this memory (bytes/s)
system.physmem.bw_inst_read::cpu2.inst       92122247                       # Instruction read bandwidth from this memory (bytes/s)
system.physmem.bw_inst_read::cpu3.inst       92383142                       # Instruction read bandwidth from this memory (bytes/s)
system.physmem.bw_inst_read::cpu4.inst       90774602                       # Instruction read bandwidth from this memory (bytes/s)
system.physmem.bw_inst_read::cpu5.inst       90160841                       # Instruction read bandwidth from this memory (bytes/s)
system.physmem.bw_inst_read::cpu6.inst       92592890                       # Instruction read bandwidth from this memory (bytes/s)
system.physmem.bw_inst_read::cpu7.inst       61736414                       # Instruction read bandwidth from this memory (bytes/s)
system.physmem.bw_inst_read::total         1238285089                       # Instruction read bandwidth from this memory (bytes/s)
system.physmem.bw_write::writebacks          11473284                       # Write bandwidth from this memory (bytes/s)
system.physmem.bw_write::total               11473284                       # Write bandwidth from this memory (bytes/s)
system.physmem.bw_total::writebacks          11473284                       # Total bandwidth to/from this memory (bytes/s)
system.physmem.bw_total::cpu0.inst          625953971                       # Total bandwidth to/from this memory (bytes/s)
system.physmem.bw_total::cpu0.data            6543962                       # Total bandwidth to/from this memory (bytes/s)
system.physmem.bw_total::cpu1.inst           92560982                       # Total bandwidth to/from this memory (bytes/s)
system.physmem.bw_total::cpu1.data            2352279                       # Total bandwidth to/from this memory (bytes/s)
system.physmem.bw_total::cpu2.inst           92122247                       # Total bandwidth to/from this memory (bytes/s)
system.physmem.bw_total::cpu2.data            2350871                       # Total bandwidth to/from this memory (bytes/s)
system.physmem.bw_total::cpu3.inst           92383142                       # Total bandwidth to/from this memory (bytes/s)
system.physmem.bw_total::cpu3.data            2406241                       # Total bandwidth to/from this memory (bytes/s)
system.physmem.bw_total::cpu4.inst           90774602                       # Total bandwidth to/from this memory (bytes/s)
system.physmem.bw_total::cpu4.data            2338671                       # Total bandwidth to/from this memory (bytes/s)
system.physmem.bw_total::cpu5.inst           90160841                       # Total bandwidth to/from this memory (bytes/s)
system.physmem.bw_total::cpu5.data            2330225                       # Total bandwidth to/from this memory (bytes/s)
system.physmem.bw_total::cpu6.inst           92592890                       # Total bandwidth to/from this memory (bytes/s)
system.physmem.bw_total::cpu6.data            2385126                       # Total bandwidth to/from this memory (bytes/s)
system.physmem.bw_total::cpu7.inst           61736414                       # Total bandwidth to/from this memory (bytes/s)
system.physmem.bw_total::cpu7.data            1653118                       # Total bandwidth to/from this memory (bytes/s)
system.physmem.bw_total::total             1272118866                       # Total bandwidth to/from this memory (bytes/s)
system.pwrStateResidencyTicks::UNDEFINED 136391984000                       # Cumulative time (in ticks) in various power states
system.cpu0.branchPred.lookups               17937092                       # Number of BP lookups
system.cpu0.branchPred.condPredicted         10929602                       # Number of conditional branches predicted
system.cpu0.branchPred.condIncorrect           438241                       # Number of conditional branches incorrect
system.cpu0.branchPred.BTBLookups             9731315                       # Number of BTB lookups
system.cpu0.branchPred.BTBHits                8475397                       # Number of BTB hits
system.cpu0.branchPred.BTBCorrect                   0                       # Number of correct BTB predictions (this stat may not work properly.
system.cpu0.branchPred.BTBHitPct            87.094057                       # BTB Hit Percentage
system.cpu0.branchPred.usedRAS                2248852                       # Number of times the RAS was used to get a target.
system.cpu0.branchPred.RASInCorrect             41300                       # Number of incorrect RAS predictions.
system.cpu0.branchPred.indirectLookups         562667                       # Number of indirect predictor lookups.
system.cpu0.branchPred.indirectHits            558632                       # Number of indirect target hits.
system.cpu0.branchPred.indirectMisses            4035                       # Number of indirect misses.
system.cpu0.branchPredindirectMispredicted         9585                       # Number of mispredicted indirect branches.
system.cpu0.dstage2_mmu.stage2_tlb.walker.pwrStateResidencyTicks::UNDEFINED 136391984000                       # Cumulative time (in ticks) in various power states
system.cpu0.dstage2_mmu.stage2_tlb.walker.walks            0                       # Table walker walks requested
system.cpu0.dstage2_mmu.stage2_tlb.walker.walkRequestOrigin_Requested::Data            0                       # Table walker requests started/completed, data/inst
system.cpu0.dstage2_mmu.stage2_tlb.walker.walkRequestOrigin_Requested::Inst            0                       # Table walker requests started/completed, data/inst
system.cpu0.dstage2_mmu.stage2_tlb.walker.walkRequestOrigin_Requested::total            0                       # Table walker requests started/completed, data/inst
system.cpu0.dstage2_mmu.stage2_tlb.walker.walkRequestOrigin_Completed::Data            0                       # Table walker requests started/completed, data/inst
system.cpu0.dstage2_mmu.stage2_tlb.walker.walkRequestOrigin_Completed::Inst            0                       # Table walker requests started/completed, data/inst
system.cpu0.dstage2_mmu.stage2_tlb.walker.walkRequestOrigin_Completed::total            0                       # Table walker requests started/completed, data/inst
system.cpu0.dstage2_mmu.stage2_tlb.walker.walkRequestOrigin::total            0                       # Table walker requests started/completed, data/inst
system.cpu0.dstage2_mmu.stage2_tlb.inst_hits            0                       # ITB inst hits
system.cpu0.dstage2_mmu.stage2_tlb.inst_misses            0                       # ITB inst misses
system.cpu0.dstage2_mmu.stage2_tlb.read_hits            0                       # DTB read hits
system.cpu0.dstage2_mmu.stage2_tlb.read_misses            0                       # DTB read misses
system.cpu0.dstage2_mmu.stage2_tlb.write_hits            0                       # DTB write hits
system.cpu0.dstage2_mmu.stage2_tlb.write_misses            0                       # DTB write misses
system.cpu0.dstage2_mmu.stage2_tlb.flush_tlb            0                       # Number of times complete TLB was flushed
system.cpu0.dstage2_mmu.stage2_tlb.flush_tlb_mva            0                       # Number of times TLB was flushed by MVA
system.cpu0.dstage2_mmu.stage2_tlb.flush_tlb_mva_asid            0                       # Number of times TLB was flushed by MVA & ASID
system.cpu0.dstage2_mmu.stage2_tlb.flush_tlb_asid            0                       # Number of times TLB was flushed by ASID
system.cpu0.dstage2_mmu.stage2_tlb.flush_entries            0                       # Number of entries that have been flushed from TLB
system.cpu0.dstage2_mmu.stage2_tlb.align_faults            0                       # Number of TLB faults due to alignment restrictions
system.cpu0.dstage2_mmu.stage2_tlb.prefetch_faults            0                       # Number of TLB faults due to prefetch
system.cpu0.dstage2_mmu.stage2_tlb.domain_faults            0                       # Number of TLB faults due to domain restrictions
system.cpu0.dstage2_mmu.stage2_tlb.perms_faults            0                       # Number of TLB faults due to permissions restrictions
system.cpu0.dstage2_mmu.stage2_tlb.read_accesses            0                       # DTB read accesses
system.cpu0.dstage2_mmu.stage2_tlb.write_accesses            0                       # DTB write accesses
system.cpu0.dstage2_mmu.stage2_tlb.inst_accesses            0                       # ITB inst accesses
system.cpu0.dstage2_mmu.stage2_tlb.hits             0                       # DTB hits
system.cpu0.dstage2_mmu.stage2_tlb.misses            0                       # DTB misses
system.cpu0.dstage2_mmu.stage2_tlb.accesses            0                       # DTB accesses
system.cpu0.dtb.walker.pwrStateResidencyTicks::UNDEFINED 136391984000                       # Cumulative time (in ticks) in various power states
system.cpu0.dtb.walker.walks                        0                       # Table walker walks requested
system.cpu0.dtb.walker.walkRequestOrigin_Requested::Data            0                       # Table walker requests started/completed, data/inst
system.cpu0.dtb.walker.walkRequestOrigin_Requested::Inst            0                       # Table walker requests started/completed, data/inst
system.cpu0.dtb.walker.walkRequestOrigin_Requested::total            0                       # Table walker requests started/completed, data/inst
system.cpu0.dtb.walker.walkRequestOrigin_Completed::Data            0                       # Table walker requests started/completed, data/inst
system.cpu0.dtb.walker.walkRequestOrigin_Completed::Inst            0                       # Table walker requests started/completed, data/inst
system.cpu0.dtb.walker.walkRequestOrigin_Completed::total            0                       # Table walker requests started/completed, data/inst
system.cpu0.dtb.walker.walkRequestOrigin::total            0                       # Table walker requests started/completed, data/inst
system.cpu0.dtb.inst_hits                           0                       # ITB inst hits
system.cpu0.dtb.inst_misses                         0                       # ITB inst misses
system.cpu0.dtb.read_hits                           0                       # DTB read hits
system.cpu0.dtb.read_misses                         0                       # DTB read misses
system.cpu0.dtb.write_hits                          0                       # DTB write hits
system.cpu0.dtb.write_misses                        0                       # DTB write misses
system.cpu0.dtb.flush_tlb                           0                       # Number of times complete TLB was flushed
system.cpu0.dtb.flush_tlb_mva                       0                       # Number of times TLB was flushed by MVA
system.cpu0.dtb.flush_tlb_mva_asid                  0                       # Number of times TLB was flushed by MVA & ASID
system.cpu0.dtb.flush_tlb_asid                      0                       # Number of times TLB was flushed by ASID
system.cpu0.dtb.flush_entries                       0                       # Number of entries that have been flushed from TLB
system.cpu0.dtb.align_faults                        0                       # Number of TLB faults due to alignment restrictions
system.cpu0.dtb.prefetch_faults                     0                       # Number of TLB faults due to prefetch
system.cpu0.dtb.domain_faults                       0                       # Number of TLB faults due to domain restrictions
system.cpu0.dtb.perms_faults                        0                       # Number of TLB faults due to permissions restrictions
system.cpu0.dtb.read_accesses                       0                       # DTB read accesses
system.cpu0.dtb.write_accesses                      0                       # DTB write accesses
system.cpu0.dtb.inst_accesses                       0                       # ITB inst accesses
system.cpu0.dtb.hits                                0                       # DTB hits
system.cpu0.dtb.misses                              0                       # DTB misses
system.cpu0.dtb.accesses                            0                       # DTB accesses
system.cpu0.istage2_mmu.stage2_tlb.walker.pwrStateResidencyTicks::UNDEFINED 136391984000                       # Cumulative time (in ticks) in various power states
system.cpu0.istage2_mmu.stage2_tlb.walker.walks            0                       # Table walker walks requested
system.cpu0.istage2_mmu.stage2_tlb.walker.walkRequestOrigin_Requested::Data            0                       # Table walker requests started/completed, data/inst
system.cpu0.istage2_mmu.stage2_tlb.walker.walkRequestOrigin_Requested::Inst            0                       # Table walker requests started/completed, data/inst
system.cpu0.istage2_mmu.stage2_tlb.walker.walkRequestOrigin_Requested::total            0                       # Table walker requests started/completed, data/inst
system.cpu0.istage2_mmu.stage2_tlb.walker.walkRequestOrigin_Completed::Data            0                       # Table walker requests started/completed, data/inst
system.cpu0.istage2_mmu.stage2_tlb.walker.walkRequestOrigin_Completed::Inst            0                       # Table walker requests started/completed, data/inst
system.cpu0.istage2_mmu.stage2_tlb.walker.walkRequestOrigin_Completed::total            0                       # Table walker requests started/completed, data/inst
system.cpu0.istage2_mmu.stage2_tlb.walker.walkRequestOrigin::total            0                       # Table walker requests started/completed, data/inst
system.cpu0.istage2_mmu.stage2_tlb.inst_hits            0                       # ITB inst hits
system.cpu0.istage2_mmu.stage2_tlb.inst_misses            0                       # ITB inst misses
system.cpu0.istage2_mmu.stage2_tlb.read_hits            0                       # DTB read hits
system.cpu0.istage2_mmu.stage2_tlb.read_misses            0                       # DTB read misses
system.cpu0.istage2_mmu.stage2_tlb.write_hits            0                       # DTB write hits
system.cpu0.istage2_mmu.stage2_tlb.write_misses            0                       # DTB write misses
system.cpu0.istage2_mmu.stage2_tlb.flush_tlb            0                       # Number of times complete TLB was flushed
system.cpu0.istage2_mmu.stage2_tlb.flush_tlb_mva            0                       # Number of times TLB was flushed by MVA
system.cpu0.istage2_mmu.stage2_tlb.flush_tlb_mva_asid            0                       # Number of times TLB was flushed by MVA & ASID
system.cpu0.istage2_mmu.stage2_tlb.flush_tlb_asid            0                       # Number of times TLB was flushed by ASID
system.cpu0.istage2_mmu.stage2_tlb.flush_entries            0                       # Number of entries that have been flushed from TLB
system.cpu0.istage2_mmu.stage2_tlb.align_faults            0                       # Number of TLB faults due to alignment restrictions
system.cpu0.istage2_mmu.stage2_tlb.prefetch_faults            0                       # Number of TLB faults due to prefetch
system.cpu0.istage2_mmu.stage2_tlb.domain_faults            0                       # Number of TLB faults due to domain restrictions
system.cpu0.istage2_mmu.stage2_tlb.perms_faults            0                       # Number of TLB faults due to permissions restrictions
system.cpu0.istage2_mmu.stage2_tlb.read_accesses            0                       # DTB read accesses
system.cpu0.istage2_mmu.stage2_tlb.write_accesses            0                       # DTB write accesses
system.cpu0.istage2_mmu.stage2_tlb.inst_accesses            0                       # ITB inst accesses
system.cpu0.istage2_mmu.stage2_tlb.hits             0                       # DTB hits
system.cpu0.istage2_mmu.stage2_tlb.misses            0                       # DTB misses
system.cpu0.istage2_mmu.stage2_tlb.accesses            0                       # DTB accesses
system.cpu0.itb.walker.pwrStateResidencyTicks::UNDEFINED 136391984000                       # Cumulative time (in ticks) in various power states
system.cpu0.itb.walker.walks                        0                       # Table walker walks requested
system.cpu0.itb.walker.walkRequestOrigin_Requested::Data            0                       # Table walker requests started/completed, data/inst
system.cpu0.itb.walker.walkRequestOrigin_Requested::Inst            0                       # Table walker requests started/completed, data/inst
system.cpu0.itb.walker.walkRequestOrigin_Requested::total            0                       # Table walker requests started/completed, data/inst
system.cpu0.itb.walker.walkRequestOrigin_Completed::Data            0                       # Table walker requests started/completed, data/inst
system.cpu0.itb.walker.walkRequestOrigin_Completed::Inst            0                       # Table walker requests started/completed, data/inst
system.cpu0.itb.walker.walkRequestOrigin_Completed::total            0                       # Table walker requests started/completed, data/inst
system.cpu0.itb.walker.walkRequestOrigin::total            0                       # Table walker requests started/completed, data/inst
system.cpu0.itb.inst_hits                           0                       # ITB inst hits
system.cpu0.itb.inst_misses                         0                       # ITB inst misses
system.cpu0.itb.read_hits                           0                       # DTB read hits
system.cpu0.itb.read_misses                         0                       # DTB read misses
system.cpu0.itb.write_hits                          0                       # DTB write hits
system.cpu0.itb.write_misses                        0                       # DTB write misses
system.cpu0.itb.flush_tlb                           0                       # Number of times complete TLB was flushed
system.cpu0.itb.flush_tlb_mva                       0                       # Number of times TLB was flushed by MVA
system.cpu0.itb.flush_tlb_mva_asid                  0                       # Number of times TLB was flushed by MVA & ASID
system.cpu0.itb.flush_tlb_asid                      0                       # Number of times TLB was flushed by ASID
system.cpu0.itb.flush_entries                       0                       # Number of entries that have been flushed from TLB
system.cpu0.itb.align_faults                        0                       # Number of TLB faults due to alignment restrictions
system.cpu0.itb.prefetch_faults                     0                       # Number of TLB faults due to prefetch
system.cpu0.itb.domain_faults                       0                       # Number of TLB faults due to domain restrictions
system.cpu0.itb.perms_faults                        0                       # Number of TLB faults due to permissions restrictions
system.cpu0.itb.read_accesses                       0                       # DTB read accesses
system.cpu0.itb.write_accesses                      0                       # DTB write accesses
system.cpu0.itb.inst_accesses                       0                       # ITB inst accesses
system.cpu0.itb.hits                                0                       # DTB hits
system.cpu0.itb.misses                              0                       # DTB misses
system.cpu0.itb.accesses                            0                       # DTB accesses
system.cpu0.workload.num_syscalls              247688                       # Number of system calls
system.cpu0.pwrStateResidencyTicks::ON   136391984000                       # Cumulative time (in ticks) in various power states
system.cpu0.numCycles                       136391985                       # number of cpu cycles simulated
system.cpu0.numWorkItemsStarted                     0                       # number of work items this cpu started
system.cpu0.numWorkItemsCompleted                   0                       # number of work items this cpu completed
system.cpu0.fetch.icacheStallCycles          44652122                       # Number of cycles fetch is stalled on an Icache miss
system.cpu0.fetch.Insts                     100623854                       # Number of instructions fetch has processed
system.cpu0.fetch.Branches                   17937092                       # Number of branches that fetch encountered
system.cpu0.fetch.predictedBranches          11282881                       # Number of branches that fetch has predicted taken
system.cpu0.fetch.Cycles                     65928239                       # Number of cycles fetch has run and was not squashing or blocked
system.cpu0.fetch.SquashCycles                 885247                       # Number of cycles fetch has spent squashing
system.cpu0.fetch.MiscStallCycles                  28                       # Number of cycles fetch has spent waiting on interrupts, or bad addresses, or out of MSHRs
system.cpu0.fetch.PendingTrapStallCycles          393                       # Number of stall cycles due to pending traps
system.cpu0.fetch.CacheLines                 13990684                       # Number of cache lines fetched
system.cpu0.fetch.IcacheSquashes               134003                       # Number of outstanding Icache misses that were squashed
system.cpu0.fetch.rateDist::samples         111023405                       # Number of instructions fetched each cycle (Total)
system.cpu0.fetch.rateDist::mean             1.023650                       # Number of instructions fetched each cycle (Total)
system.cpu0.fetch.rateDist::stdev            0.955964                       # Number of instructions fetched each cycle (Total)
system.cpu0.fetch.rateDist::underflows              0      0.00%      0.00% # Number of instructions fetched each cycle (Total)
system.cpu0.fetch.rateDist::0                49448540     44.54%     44.54% # Number of instructions fetched each cycle (Total)
system.cpu0.fetch.rateDist::1                 9500650      8.56%     53.10% # Number of instructions fetched each cycle (Total)
system.cpu0.fetch.rateDist::2                52074215     46.90%    100.00% # Number of instructions fetched each cycle (Total)
system.cpu0.fetch.rateDist::overflows               0      0.00%    100.00% # Number of instructions fetched each cycle (Total)
system.cpu0.fetch.rateDist::min_value               0                       # Number of instructions fetched each cycle (Total)
system.cpu0.fetch.rateDist::max_value               2                       # Number of instructions fetched each cycle (Total)
system.cpu0.fetch.rateDist::total           111023405                       # Number of instructions fetched each cycle (Total)
system.cpu0.fetch.branchRate                 0.131511                       # Number of branch fetches per cycle
system.cpu0.fetch.rate                       0.737755                       # Number of inst fetches per cycle
system.cpu0.decode.IdleCycles                42368956                       # Number of cycles decode is idle
system.cpu0.decode.BlockedCycles             10385054                       # Number of cycles decode is blocked
system.cpu0.decode.RunCycles                 46972901                       # Number of cycles decode is running
system.cpu0.decode.UnblockCycles             10888505                       # Number of cycles decode is unblocking
system.cpu0.decode.SquashCycles                407989                       # Number of cycles decode is squashing
system.cpu0.decode.BranchResolved             4845137                       # Number of times decode resolved a branch
system.cpu0.decode.BranchMispred                34993                       # Number of times decode detected a branch misprediction
system.cpu0.decode.DecodedInsts             111919483                       # Number of instructions handled by decode
system.cpu0.decode.SquashedInsts                61405                       # Number of squashed instructions handled by decode
system.cpu0.rename.SquashCycles                407989                       # Number of cycles rename is squashing
system.cpu0.rename.IdleCycles                44761771                       # Number of cycles rename is idle
system.cpu0.rename.BlockCycles                1056146                       # Number of cycles rename is blocking
system.cpu0.rename.serializeStallCycles        463417                       # count of cycles rename stalled for serializing inst
system.cpu0.rename.RunCycles                 55436133                       # Number of cycles rename is running
system.cpu0.rename.UnblockCycles              8897949                       # Number of cycles rename is unblocking
system.cpu0.rename.RenamedInsts             111383962                       # Number of instructions processed by rename
system.cpu0.rename.IQFullEvents               6747199                       # Number of times rename has blocked due to IQ full
system.cpu0.rename.LQFullEvents                 49260                       # Number of times rename has blocked due to LQ full
system.cpu0.rename.SQFullEvents                  2148                       # Number of times rename has blocked due to SQ full
system.cpu0.rename.RenamedOperands          139471042                       # Number of destination operands rename has renamed
system.cpu0.rename.RenameLookups            514167945                       # Number of register rename lookups that rename has made
system.cpu0.rename.int_rename_lookups       141890907                       # Number of integer rename lookups
system.cpu0.rename.fp_rename_lookups               16                       # Number of floating rename lookups
system.cpu0.rename.CommittedMaps            123940129                       # Number of HB maps that are committed
system.cpu0.rename.UndoneMaps                15530913                       # Number of HB maps that are undone due to squashing
system.cpu0.rename.serializingInsts             22623                       # count of serializing insts renamed
system.cpu0.rename.tempSerializingInsts         11265                       # count of temporary serializing insts renamed
system.cpu0.rename.skidInsts                  9595347                       # count of insts added to the skid buffer
system.cpu0.memDep0.insertedLoads            14492473                       # Number of loads inserted to the mem dependence unit.
system.cpu0.memDep0.insertedStores            9103429                       # Number of stores inserted to the mem dependence unit.
system.cpu0.memDep0.conflictingLoads          4308543                       # Number of conflicting loads.
system.cpu0.memDep0.conflictingStores         1500533                       # Number of conflicting stores.
system.cpu0.iq.iqInstsAdded                 110318158                       # Number of instructions added to the IQ (excludes non-spec)
system.cpu0.iq.iqNonSpecInstsAdded              20702                       # Number of non-speculative instructions added to the IQ
system.cpu0.iq.iqInstsIssued                102122475                       # Number of instructions issued
system.cpu0.iq.iqSquashedInstsIssued          1237748                       # Number of squashed instructions issued
system.cpu0.iq.iqSquashedInstsExamined        9839172                       # Number of squashed instructions iterated over during squash; mainly for profiling
system.cpu0.iq.iqSquashedOperandsExamined     38472946                       # Number of squashed operands that are examined and possibly removed from graph
system.cpu0.iq.iqSquashedNonSpecRemoved          1299                       # Number of squashed non-spec instructions that were removed
system.cpu0.iq.issued_per_cycle::samples    111023405                       # Number of insts issued each cycle
system.cpu0.iq.issued_per_cycle::mean        0.919828                       # Number of insts issued each cycle
system.cpu0.iq.issued_per_cycle::stdev       0.670178                       # Number of insts issued each cycle
system.cpu0.iq.issued_per_cycle::underflows            0      0.00%      0.00% # Number of insts issued each cycle
system.cpu0.iq.issued_per_cycle::0           29739692     26.79%     26.79% # Number of insts issued each cycle
system.cpu0.iq.issued_per_cycle::1           60444951     54.44%     81.23% # Number of insts issued each cycle
system.cpu0.iq.issued_per_cycle::2           20838762     18.77%    100.00% # Number of insts issued each cycle
system.cpu0.iq.issued_per_cycle::overflows            0      0.00%    100.00% # Number of insts issued each cycle
system.cpu0.iq.issued_per_cycle::min_value            0                       # Number of insts issued each cycle
system.cpu0.iq.issued_per_cycle::max_value            2                       # Number of insts issued each cycle
system.cpu0.iq.issued_per_cycle::total      111023405                       # Number of insts issued each cycle
system.cpu0.iq.fu_full::No_OpClass                  0      0.00%      0.00% # attempts to use FU when none available
system.cpu0.iq.fu_full::IntAlu               58337827     93.29%     93.29% # attempts to use FU when none available
system.cpu0.iq.fu_full::IntMult                     0      0.00%     93.29% # attempts to use FU when none available
system.cpu0.iq.fu_full::IntDiv                      0      0.00%     93.29% # attempts to use FU when none available
system.cpu0.iq.fu_full::FloatAdd                    0      0.00%     93.29% # attempts to use FU when none available
system.cpu0.iq.fu_full::FloatCmp                    0      0.00%     93.29% # attempts to use FU when none available
system.cpu0.iq.fu_full::FloatCvt                    0      0.00%     93.29% # attempts to use FU when none available
system.cpu0.iq.fu_full::FloatMult                   0      0.00%     93.29% # attempts to use FU when none available
system.cpu0.iq.fu_full::FloatMultAcc                0      0.00%     93.29% # attempts to use FU when none available
system.cpu0.iq.fu_full::FloatDiv                    0      0.00%     93.29% # attempts to use FU when none available
system.cpu0.iq.fu_full::FloatMisc                   0      0.00%     93.29% # attempts to use FU when none available
system.cpu0.iq.fu_full::FloatSqrt                   0      0.00%     93.29% # attempts to use FU when none available
system.cpu0.iq.fu_full::SimdAdd                     0      0.00%     93.29% # attempts to use FU when none available
system.cpu0.iq.fu_full::SimdAddAcc                  0      0.00%     93.29% # attempts to use FU when none available
system.cpu0.iq.fu_full::SimdAlu                     0      0.00%     93.29% # attempts to use FU when none available
system.cpu0.iq.fu_full::SimdCmp                     0      0.00%     93.29% # attempts to use FU when none available
system.cpu0.iq.fu_full::SimdCvt                     0      0.00%     93.29% # attempts to use FU when none available
system.cpu0.iq.fu_full::SimdMisc                    0      0.00%     93.29% # attempts to use FU when none available
system.cpu0.iq.fu_full::SimdMult                    0      0.00%     93.29% # attempts to use FU when none available
system.cpu0.iq.fu_full::SimdMultAcc                 0      0.00%     93.29% # attempts to use FU when none available
system.cpu0.iq.fu_full::SimdShift                   0      0.00%     93.29% # attempts to use FU when none available
system.cpu0.iq.fu_full::SimdShiftAcc                0      0.00%     93.29% # attempts to use FU when none available
system.cpu0.iq.fu_full::SimdSqrt                    0      0.00%     93.29% # attempts to use FU when none available
system.cpu0.iq.fu_full::SimdFloatAdd                0      0.00%     93.29% # attempts to use FU when none available
system.cpu0.iq.fu_full::SimdFloatAlu                0      0.00%     93.29% # attempts to use FU when none available
system.cpu0.iq.fu_full::SimdFloatCmp                0      0.00%     93.29% # attempts to use FU when none available
system.cpu0.iq.fu_full::SimdFloatCvt                0      0.00%     93.29% # attempts to use FU when none available
system.cpu0.iq.fu_full::SimdFloatDiv                0      0.00%     93.29% # attempts to use FU when none available
system.cpu0.iq.fu_full::SimdFloatMisc               0      0.00%     93.29% # attempts to use FU when none available
system.cpu0.iq.fu_full::SimdFloatMult               0      0.00%     93.29% # attempts to use FU when none available
system.cpu0.iq.fu_full::SimdFloatMultAcc            0      0.00%     93.29% # attempts to use FU when none available
system.cpu0.iq.fu_full::SimdFloatSqrt               0      0.00%     93.29% # attempts to use FU when none available
system.cpu0.iq.fu_full::MemRead               2578995      4.12%     97.41% # attempts to use FU when none available
system.cpu0.iq.fu_full::MemWrite              1619897      2.59%    100.00% # attempts to use FU when none available
system.cpu0.iq.fu_full::FloatMemRead                0      0.00%    100.00% # attempts to use FU when none available
system.cpu0.iq.fu_full::FloatMemWrite               0      0.00%    100.00% # attempts to use FU when none available
system.cpu0.iq.fu_full::IprAccess                   0      0.00%    100.00% # attempts to use FU when none available
system.cpu0.iq.fu_full::InstPrefetch                0      0.00%    100.00% # attempts to use FU when none available
system.cpu0.iq.FU_type_0::No_OpClass                0      0.00%      0.00% # Type of FU issued
system.cpu0.iq.FU_type_0::IntAlu             78719800     77.08%     77.08% # Type of FU issued
system.cpu0.iq.FU_type_0::IntMult              523880      0.51%     77.60% # Type of FU issued
system.cpu0.iq.FU_type_0::IntDiv                    0      0.00%     77.60% # Type of FU issued
system.cpu0.iq.FU_type_0::FloatAdd                  0      0.00%     77.60% # Type of FU issued
system.cpu0.iq.FU_type_0::FloatCmp                  0      0.00%     77.60% # Type of FU issued
system.cpu0.iq.FU_type_0::FloatCvt                  0      0.00%     77.60% # Type of FU issued
system.cpu0.iq.FU_type_0::FloatMult                 0      0.00%     77.60% # Type of FU issued
system.cpu0.iq.FU_type_0::FloatMultAcc              0      0.00%     77.60% # Type of FU issued
system.cpu0.iq.FU_type_0::FloatDiv                  0      0.00%     77.60% # Type of FU issued
system.cpu0.iq.FU_type_0::FloatMisc                 0      0.00%     77.60% # Type of FU issued
system.cpu0.iq.FU_type_0::FloatSqrt                 0      0.00%     77.60% # Type of FU issued
system.cpu0.iq.FU_type_0::SimdAdd                   0      0.00%     77.60% # Type of FU issued
system.cpu0.iq.FU_type_0::SimdAddAcc                0      0.00%     77.60% # Type of FU issued
system.cpu0.iq.FU_type_0::SimdAlu                   0      0.00%     77.60% # Type of FU issued
system.cpu0.iq.FU_type_0::SimdCmp                   0      0.00%     77.60% # Type of FU issued
system.cpu0.iq.FU_type_0::SimdCvt                   0      0.00%     77.60% # Type of FU issued
system.cpu0.iq.FU_type_0::SimdMisc                  0      0.00%     77.60% # Type of FU issued
system.cpu0.iq.FU_type_0::SimdMult                  0      0.00%     77.60% # Type of FU issued
system.cpu0.iq.FU_type_0::SimdMultAcc               0      0.00%     77.60% # Type of FU issued
system.cpu0.iq.FU_type_0::SimdShift                 0      0.00%     77.60% # Type of FU issued
system.cpu0.iq.FU_type_0::SimdShiftAcc              0      0.00%     77.60% # Type of FU issued
system.cpu0.iq.FU_type_0::SimdSqrt                  0      0.00%     77.60% # Type of FU issued
system.cpu0.iq.FU_type_0::SimdFloatAdd              0      0.00%     77.60% # Type of FU issued
system.cpu0.iq.FU_type_0::SimdFloatAlu              0      0.00%     77.60% # Type of FU issued
system.cpu0.iq.FU_type_0::SimdFloatCmp              0      0.00%     77.60% # Type of FU issued
system.cpu0.iq.FU_type_0::SimdFloatCvt              0      0.00%     77.60% # Type of FU issued
system.cpu0.iq.FU_type_0::SimdFloatDiv              0      0.00%     77.60% # Type of FU issued
system.cpu0.iq.FU_type_0::SimdFloatMisc         11308      0.01%     77.61% # Type of FU issued
system.cpu0.iq.FU_type_0::SimdFloatMult             0      0.00%     77.61% # Type of FU issued
system.cpu0.iq.FU_type_0::SimdFloatMultAcc            0      0.00%     77.61% # Type of FU issued
system.cpu0.iq.FU_type_0::SimdFloatSqrt             0      0.00%     77.61% # Type of FU issued
system.cpu0.iq.FU_type_0::MemRead            14082784     13.79%     91.40% # Type of FU issued
system.cpu0.iq.FU_type_0::MemWrite            8784687      8.60%    100.00% # Type of FU issued
system.cpu0.iq.FU_type_0::FloatMemRead              0      0.00%    100.00% # Type of FU issued
system.cpu0.iq.FU_type_0::FloatMemWrite            16      0.00%    100.00% # Type of FU issued
system.cpu0.iq.FU_type_0::IprAccess                 0      0.00%    100.00% # Type of FU issued
system.cpu0.iq.FU_type_0::InstPrefetch              0      0.00%    100.00% # Type of FU issued
system.cpu0.iq.FU_type_0::total             102122475                       # Type of FU issued
system.cpu0.iq.rate                          0.748742                       # Inst issue rate
system.cpu0.iq.fu_busy_cnt                   62536719                       # FU busy when requested
system.cpu0.iq.fu_busy_rate                  0.612370                       # FU busy rate (busy events/executed inst)
system.cpu0.iq.int_inst_queue_reads         379042790                       # Number of integer instruction queue reads
system.cpu0.iq.int_inst_queue_writes        120179473                       # Number of integer instruction queue writes
system.cpu0.iq.int_inst_queue_wakeup_accesses    101810838                       # Number of integer instruction queue wakeup accesses
system.cpu0.iq.fp_inst_queue_reads                 32                       # Number of floating instruction queue reads
system.cpu0.iq.fp_inst_queue_writes                16                       # Number of floating instruction queue writes
system.cpu0.iq.fp_inst_queue_wakeup_accesses           16                       # Number of floating instruction queue wakeup accesses
system.cpu0.iq.int_alu_accesses             164659178                       # Number of integer alu accesses
system.cpu0.iq.fp_alu_accesses                     16                       # Number of floating point alu accesses
system.cpu0.iew.lsq.thread0.forwLoads         1850271                       # Number of loads that had data forwarded from stores
system.cpu0.iew.lsq.thread0.invAddrLoads            0                       # Number of loads ignored due to an invalid address
system.cpu0.iew.lsq.thread0.squashedLoads       912216                       # Number of loads squashed
system.cpu0.iew.lsq.thread0.ignoredResponses          360                       # Number of memory responses ignored because the instruction is squashed
system.cpu0.iew.lsq.thread0.memOrderViolation         1523                       # Number of memory ordering violations
system.cpu0.iew.lsq.thread0.squashedStores       442382                       # Number of stores squashed
system.cpu0.iew.lsq.thread0.invAddrSwpfs            0                       # Number of software prefetches ignored due to an invalid address
system.cpu0.iew.lsq.thread0.blockedLoads            0                       # Number of blocked loads due to partial load-store forwarding
system.cpu0.iew.lsq.thread0.rescheduledLoads        83876                       # Number of loads that were rescheduled
system.cpu0.iew.lsq.thread0.cacheBlocked         4007                       # Number of times an access to memory failed due to the cache being blocked
system.cpu0.iew.iewIdleCycles                       0                       # Number of cycles IEW is idle
system.cpu0.iew.iewSquashCycles                407989                       # Number of cycles IEW is squashing
system.cpu0.iew.iewBlockCycles                1019648                       # Number of cycles IEW is blocking
system.cpu0.iew.iewUnblockCycles                30482                       # Number of cycles IEW is unblocking
system.cpu0.iew.iewDispatchedInsts          110338913                       # Number of instructions dispatched to IQ
system.cpu0.iew.iewDispSquashedInsts            94756                       # Number of squashed instructions skipped by dispatch
system.cpu0.iew.iewDispLoadInsts             14492473                       # Number of dispatched load instructions
system.cpu0.iew.iewDispStoreInsts             9103429                       # Number of dispatched store instructions
system.cpu0.iew.iewDispNonSpecInsts             11095                       # Number of dispatched non-speculative instructions
system.cpu0.iew.iewIQFullEvents                   784                       # Number of times the IQ has become full, causing a stall
system.cpu0.iew.iewLSQFullEvents                 6508                       # Number of times the LSQ has become full, causing a stall
system.cpu0.iew.memOrderViolationEvents          1523                       # Number of memory order violations
system.cpu0.iew.predictedTakenIncorrect        214980                       # Number of branches that were predicted taken incorrectly
system.cpu0.iew.predictedNotTakenIncorrect       211245                       # Number of branches that were predicted not taken incorrectly
system.cpu0.iew.branchMispredicts              426225                       # Number of branch mispredicts detected at execute
system.cpu0.iew.iewExecutedInsts            101973665                       # Number of executed instructions
system.cpu0.iew.iewExecLoadInsts             14043559                       # Number of load instructions executed
system.cpu0.iew.iewExecSquashedInsts           148810                       # Number of squashed instructions skipped in execute
system.cpu0.iew.exec_swp                            0                       # number of swp insts executed
system.cpu0.iew.exec_nop                           53                       # number of nop insts executed
system.cpu0.iew.exec_refs                    22807134                       # number of memory reference insts executed
system.cpu0.iew.exec_branches                15918559                       # Number of branches executed
system.cpu0.iew.exec_stores                   8763575                       # Number of stores executed
system.cpu0.iew.exec_rate                    0.747651                       # Inst execution rate
system.cpu0.iew.wb_sent                     101831854                       # cumulative count of insts sent to commit
system.cpu0.iew.wb_count                    101810854                       # cumulative count of insts written-back
system.cpu0.iew.wb_producers                 71475856                       # num instructions producing a value
system.cpu0.iew.wb_consumers                163034739                       # num instructions consuming a value
system.cpu0.iew.wb_rate                      0.746458                       # insts written-back per cycle
system.cpu0.iew.wb_fanout                    0.438409                       # average fanout of values written-back
system.cpu0.commit.commitSquashedInsts        9839256                       # The number of squashed insts skipped by commit
system.cpu0.commit.commitNonSpecStalls          19403                       # The number of times commit has been forced to stall to communicate backwards
system.cpu0.commit.branchMispredicts           403607                       # The number of times a branch was mispredicted
system.cpu0.commit.committed_per_cycle::samples    109609511                       # Number of insts commited each cycle
system.cpu0.commit.committed_per_cycle::mean     0.916888                       # Number of insts commited each cycle
system.cpu0.commit.committed_per_cycle::stdev     1.004615                       # Number of insts commited each cycle
system.cpu0.commit.committed_per_cycle::underflows            0      0.00%      0.00% # Number of insts commited each cycle
system.cpu0.commit.committed_per_cycle::0     34147928     31.15%     31.15% # Number of insts commited each cycle
system.cpu0.commit.committed_per_cycle::1     62231090     56.78%     87.93% # Number of insts commited each cycle
system.cpu0.commit.committed_per_cycle::2      8117501      7.41%     95.34% # Number of insts commited each cycle
system.cpu0.commit.committed_per_cycle::3      2496311      2.28%     97.61% # Number of insts commited each cycle
system.cpu0.commit.committed_per_cycle::4       968258      0.88%     98.50% # Number of insts commited each cycle
system.cpu0.commit.committed_per_cycle::5       231169      0.21%     98.71% # Number of insts commited each cycle
system.cpu0.commit.committed_per_cycle::6       480380      0.44%     99.15% # Number of insts commited each cycle
system.cpu0.commit.committed_per_cycle::7       861486      0.79%     99.93% # Number of insts commited each cycle
system.cpu0.commit.committed_per_cycle::8        75388      0.07%    100.00% # Number of insts commited each cycle
system.cpu0.commit.committed_per_cycle::overflows            0      0.00%    100.00% # Number of insts commited each cycle
system.cpu0.commit.committed_per_cycle::min_value            0                       # Number of insts commited each cycle
system.cpu0.commit.committed_per_cycle::max_value            8                       # Number of insts commited each cycle
system.cpu0.commit.committed_per_cycle::total    109609511                       # Number of insts commited each cycle
system.cpu0.commit.committedInsts            88928505                       # Number of instructions committed
system.cpu0.commit.committedOps             100499688                       # Number of ops (including micro ops) committed
system.cpu0.commit.swp_count                        0                       # Number of s/w prefetches committed
system.cpu0.commit.refs                      22241304                       # Number of memory references committed
system.cpu0.commit.loads                     13580257                       # Number of loads committed
system.cpu0.commit.membars                       9422                       # Number of memory barriers committed
system.cpu0.commit.branches                  15785263                       # Number of branches committed
system.cpu0.commit.fp_insts                        16                       # Number of committed floating point instructions.
system.cpu0.commit.int_insts                 90866371                       # Number of committed integer instructions.
system.cpu0.commit.function_calls             2565367                       # Number of function calls committed.
system.cpu0.commit.op_class_0::No_OpClass            0      0.00%      0.00% # Class of committed instruction
system.cpu0.commit.op_class_0::IntAlu        77741928     77.36%     77.36% # Class of committed instruction
system.cpu0.commit.op_class_0::IntMult         505148      0.50%     77.86% # Class of committed instruction
system.cpu0.commit.op_class_0::IntDiv               0      0.00%     77.86% # Class of committed instruction
system.cpu0.commit.op_class_0::FloatAdd             0      0.00%     77.86% # Class of committed instruction
system.cpu0.commit.op_class_0::FloatCmp             0      0.00%     77.86% # Class of committed instruction
system.cpu0.commit.op_class_0::FloatCvt             0      0.00%     77.86% # Class of committed instruction
system.cpu0.commit.op_class_0::FloatMult            0      0.00%     77.86% # Class of committed instruction
system.cpu0.commit.op_class_0::FloatMultAcc            0      0.00%     77.86% # Class of committed instruction
system.cpu0.commit.op_class_0::FloatDiv             0      0.00%     77.86% # Class of committed instruction
system.cpu0.commit.op_class_0::FloatMisc            0      0.00%     77.86% # Class of committed instruction
system.cpu0.commit.op_class_0::FloatSqrt            0      0.00%     77.86% # Class of committed instruction
system.cpu0.commit.op_class_0::SimdAdd              0      0.00%     77.86% # Class of committed instruction
system.cpu0.commit.op_class_0::SimdAddAcc            0      0.00%     77.86% # Class of committed instruction
system.cpu0.commit.op_class_0::SimdAlu              0      0.00%     77.86% # Class of committed instruction
system.cpu0.commit.op_class_0::SimdCmp              0      0.00%     77.86% # Class of committed instruction
system.cpu0.commit.op_class_0::SimdCvt              0      0.00%     77.86% # Class of committed instruction
system.cpu0.commit.op_class_0::SimdMisc             0      0.00%     77.86% # Class of committed instruction
system.cpu0.commit.op_class_0::SimdMult             0      0.00%     77.86% # Class of committed instruction
system.cpu0.commit.op_class_0::SimdMultAcc            0      0.00%     77.86% # Class of committed instruction
system.cpu0.commit.op_class_0::SimdShift            0      0.00%     77.86% # Class of committed instruction
system.cpu0.commit.op_class_0::SimdShiftAcc            0      0.00%     77.86% # Class of committed instruction
system.cpu0.commit.op_class_0::SimdSqrt             0      0.00%     77.86% # Class of committed instruction
system.cpu0.commit.op_class_0::SimdFloatAdd            0      0.00%     77.86% # Class of committed instruction
system.cpu0.commit.op_class_0::SimdFloatAlu            0      0.00%     77.86% # Class of committed instruction
system.cpu0.commit.op_class_0::SimdFloatCmp            0      0.00%     77.86% # Class of committed instruction
system.cpu0.commit.op_class_0::SimdFloatCvt            0      0.00%     77.86% # Class of committed instruction
system.cpu0.commit.op_class_0::SimdFloatDiv            0      0.00%     77.86% # Class of committed instruction
system.cpu0.commit.op_class_0::SimdFloatMisc        11308      0.01%     77.87% # Class of committed instruction
system.cpu0.commit.op_class_0::SimdFloatMult            0      0.00%     77.87% # Class of committed instruction
system.cpu0.commit.op_class_0::SimdFloatMultAcc            0      0.00%     77.87% # Class of committed instruction
system.cpu0.commit.op_class_0::SimdFloatSqrt            0      0.00%     77.87% # Class of committed instruction
system.cpu0.commit.op_class_0::MemRead       13580257     13.51%     91.38% # Class of committed instruction
system.cpu0.commit.op_class_0::MemWrite       8661031      8.62%    100.00% # Class of committed instruction
system.cpu0.commit.op_class_0::FloatMemRead            0      0.00%    100.00% # Class of committed instruction
system.cpu0.commit.op_class_0::FloatMemWrite           16      0.00%    100.00% # Class of committed instruction
system.cpu0.commit.op_class_0::IprAccess            0      0.00%    100.00% # Class of committed instruction
system.cpu0.commit.op_class_0::InstPrefetch            0      0.00%    100.00% # Class of committed instruction
system.cpu0.commit.op_class_0::total        100499688                       # Class of committed instruction
system.cpu0.commit.bw_lim_events                75388                       # number cycles where commit BW limit reached
system.cpu0.rob.rob_reads                   219833710                       # The number of ROB reads
system.cpu0.rob.rob_writes                  222092225                       # The number of ROB writes
system.cpu0.timesIdled                        1231579                       # Number of times that the entire CPU went into an idle state and unscheduled itself
system.cpu0.idleCycles                       25368580                       # Total number of cycles that the CPU has spent unscheduled due to idling
system.cpu0.committedInsts                   88928505                       # Number of Instructions Simulated
system.cpu0.committedOps                    100499688                       # Number of Ops (including micro ops) Simulated
system.cpu0.cpi                              1.533726                       # CPI: Cycles Per Instruction
system.cpu0.cpi_total                        1.533726                       # CPI: Total CPI of All Threads
system.cpu0.ipc                              0.652007                       # IPC: Instructions Per Cycle
system.cpu0.ipc_total                        0.652007                       # IPC: Total IPC of All Threads
system.cpu0.int_regfile_reads               119819244                       # number of integer regfile reads
system.cpu0.int_regfile_writes               70781032                       # number of integer regfile writes
system.cpu0.fp_regfile_reads                     1136                       # number of floating regfile reads
system.cpu0.cc_regfile_reads                350810602                       # number of cc regfile reads
system.cpu0.cc_regfile_writes                53093006                       # number of cc regfile writes
system.cpu0.misc_regfile_reads               22721266                       # number of misc regfile reads
system.cpu0.misc_regfile_writes                 17480                       # number of misc regfile writes
system.cpu0.dcache.tags.pwrStateResidencyTicks::UNDEFINED 136391984000                       # Cumulative time (in ticks) in various power states
system.cpu0.dcache.tags.replacements            13719                       # number of replacements
system.cpu0.dcache.tags.tagsinuse          119.356906                       # Cycle average of tags in use
system.cpu0.dcache.tags.total_refs           20125026                       # Total number of references to valid blocks.
system.cpu0.dcache.tags.sampled_refs            13847                       # Sample count of references to valid blocks.
system.cpu0.dcache.tags.avg_refs          1453.385282                       # Average number of references to valid blocks.
system.cpu0.dcache.tags.warmup_cycle         31971000                       # Cycle when the warmup percentage was hit.
system.cpu0.dcache.tags.occ_blocks::cpu0.data   119.356906                       # Average occupied blocks per requestor
system.cpu0.dcache.tags.occ_percent::cpu0.data     0.932476                       # Average percentage of cache occupancy
system.cpu0.dcache.tags.occ_percent::total     0.932476                       # Average percentage of cache occupancy
system.cpu0.dcache.tags.occ_task_id_blocks::1024          128                       # Occupied blocks per task id
system.cpu0.dcache.tags.age_task_id_blocks_1024::0           26                       # Occupied blocks per task id
system.cpu0.dcache.tags.age_task_id_blocks_1024::1            1                       # Occupied blocks per task id
system.cpu0.dcache.tags.age_task_id_blocks_1024::2          101                       # Occupied blocks per task id
system.cpu0.dcache.tags.occ_task_id_percent::1024            1                       # Percentage of cache occupancy per task id
system.cpu0.dcache.tags.tag_accesses        161370914                       # Number of tag accesses
system.cpu0.dcache.tags.data_accesses       161370914                       # Number of data accesses
system.cpu0.dcache.pwrStateResidencyTicks::UNDEFINED 136391984000                       # Cumulative time (in ticks) in various power states
system.cpu0.dcache.ReadReq_hits::cpu0.data     11625961                       # number of ReadReq hits
system.cpu0.dcache.ReadReq_hits::total       11625961                       # number of ReadReq hits
system.cpu0.dcache.WriteReq_hits::cpu0.data      8483830                       # number of WriteReq hits
system.cpu0.dcache.WriteReq_hits::total       8483830                       # number of WriteReq hits
system.cpu0.dcache.LoadLockedReq_hits::cpu0.data         6113                       # number of LoadLockedReq hits
system.cpu0.dcache.LoadLockedReq_hits::total         6113                       # number of LoadLockedReq hits
system.cpu0.dcache.StoreCondReq_hits::cpu0.data         4098                       # number of StoreCondReq hits
system.cpu0.dcache.StoreCondReq_hits::total         4098                       # number of StoreCondReq hits
system.cpu0.dcache.demand_hits::cpu0.data     20109791                       # number of demand (read+write) hits
system.cpu0.dcache.demand_hits::total        20109791                       # number of demand (read+write) hits
system.cpu0.dcache.overall_hits::cpu0.data     20109791                       # number of overall hits
system.cpu0.dcache.overall_hits::total       20109791                       # number of overall hits
system.cpu0.dcache.ReadReq_misses::cpu0.data        23781                       # number of ReadReq misses
system.cpu0.dcache.ReadReq_misses::total        23781                       # number of ReadReq misses
system.cpu0.dcache.WriteReq_misses::cpu0.data        21208                       # number of WriteReq misses
system.cpu0.dcache.WriteReq_misses::total        21208                       # number of WriteReq misses
system.cpu0.dcache.LoadLockedReq_misses::cpu0.data         1247                       # number of LoadLockedReq misses
system.cpu0.dcache.LoadLockedReq_misses::total         1247                       # number of LoadLockedReq misses
system.cpu0.dcache.StoreCondReq_misses::cpu0.data         2377                       # number of StoreCondReq misses
system.cpu0.dcache.StoreCondReq_misses::total         2377                       # number of StoreCondReq misses
system.cpu0.dcache.demand_misses::cpu0.data        44989                       # number of demand (read+write) misses
system.cpu0.dcache.demand_misses::total         44989                       # number of demand (read+write) misses
system.cpu0.dcache.overall_misses::cpu0.data        44989                       # number of overall misses
system.cpu0.dcache.overall_misses::total        44989                       # number of overall misses
system.cpu0.dcache.ReadReq_miss_latency::cpu0.data    719297000                       # number of ReadReq miss cycles
system.cpu0.dcache.ReadReq_miss_latency::total    719297000                       # number of ReadReq miss cycles
system.cpu0.dcache.WriteReq_miss_latency::cpu0.data    693408132                       # number of WriteReq miss cycles
system.cpu0.dcache.WriteReq_miss_latency::total    693408132                       # number of WriteReq miss cycles
system.cpu0.dcache.LoadLockedReq_miss_latency::cpu0.data     21503000                       # number of LoadLockedReq miss cycles
system.cpu0.dcache.LoadLockedReq_miss_latency::total     21503000                       # number of LoadLockedReq miss cycles
system.cpu0.dcache.StoreCondReq_miss_latency::cpu0.data     38349000                       # number of StoreCondReq miss cycles
system.cpu0.dcache.StoreCondReq_miss_latency::total     38349000                       # number of StoreCondReq miss cycles
system.cpu0.dcache.StoreCondFailReq_miss_latency::cpu0.data      4536000                       # number of StoreCondFailReq miss cycles
system.cpu0.dcache.StoreCondFailReq_miss_latency::total      4536000                       # number of StoreCondFailReq miss cycles
system.cpu0.dcache.demand_miss_latency::cpu0.data   1412705132                       # number of demand (read+write) miss cycles
system.cpu0.dcache.demand_miss_latency::total   1412705132                       # number of demand (read+write) miss cycles
system.cpu0.dcache.overall_miss_latency::cpu0.data   1412705132                       # number of overall miss cycles
system.cpu0.dcache.overall_miss_latency::total   1412705132                       # number of overall miss cycles
system.cpu0.dcache.ReadReq_accesses::cpu0.data     11649742                       # number of ReadReq accesses(hits+misses)
system.cpu0.dcache.ReadReq_accesses::total     11649742                       # number of ReadReq accesses(hits+misses)
system.cpu0.dcache.WriteReq_accesses::cpu0.data      8505038                       # number of WriteReq accesses(hits+misses)
system.cpu0.dcache.WriteReq_accesses::total      8505038                       # number of WriteReq accesses(hits+misses)
system.cpu0.dcache.LoadLockedReq_accesses::cpu0.data         7360                       # number of LoadLockedReq accesses(hits+misses)
system.cpu0.dcache.LoadLockedReq_accesses::total         7360                       # number of LoadLockedReq accesses(hits+misses)
system.cpu0.dcache.StoreCondReq_accesses::cpu0.data         6475                       # number of StoreCondReq accesses(hits+misses)
system.cpu0.dcache.StoreCondReq_accesses::total         6475                       # number of StoreCondReq accesses(hits+misses)
system.cpu0.dcache.demand_accesses::cpu0.data     20154780                       # number of demand (read+write) accesses
system.cpu0.dcache.demand_accesses::total     20154780                       # number of demand (read+write) accesses
system.cpu0.dcache.overall_accesses::cpu0.data     20154780                       # number of overall (read+write) accesses
system.cpu0.dcache.overall_accesses::total     20154780                       # number of overall (read+write) accesses
system.cpu0.dcache.ReadReq_miss_rate::cpu0.data     0.002041                       # miss rate for ReadReq accesses
system.cpu0.dcache.ReadReq_miss_rate::total     0.002041                       # miss rate for ReadReq accesses
system.cpu0.dcache.WriteReq_miss_rate::cpu0.data     0.002494                       # miss rate for WriteReq accesses
system.cpu0.dcache.WriteReq_miss_rate::total     0.002494                       # miss rate for WriteReq accesses
system.cpu0.dcache.LoadLockedReq_miss_rate::cpu0.data     0.169429                       # miss rate for LoadLockedReq accesses
system.cpu0.dcache.LoadLockedReq_miss_rate::total     0.169429                       # miss rate for LoadLockedReq accesses
system.cpu0.dcache.StoreCondReq_miss_rate::cpu0.data     0.367104                       # miss rate for StoreCondReq accesses
system.cpu0.dcache.StoreCondReq_miss_rate::total     0.367104                       # miss rate for StoreCondReq accesses
system.cpu0.dcache.demand_miss_rate::cpu0.data     0.002232                       # miss rate for demand accesses
system.cpu0.dcache.demand_miss_rate::total     0.002232                       # miss rate for demand accesses
system.cpu0.dcache.overall_miss_rate::cpu0.data     0.002232                       # miss rate for overall accesses
system.cpu0.dcache.overall_miss_rate::total     0.002232                       # miss rate for overall accesses
system.cpu0.dcache.ReadReq_avg_miss_latency::cpu0.data 30246.709558                       # average ReadReq miss latency
system.cpu0.dcache.ReadReq_avg_miss_latency::total 30246.709558                       # average ReadReq miss latency
system.cpu0.dcache.WriteReq_avg_miss_latency::cpu0.data 32695.592795                       # average WriteReq miss latency
system.cpu0.dcache.WriteReq_avg_miss_latency::total 32695.592795                       # average WriteReq miss latency
system.cpu0.dcache.LoadLockedReq_avg_miss_latency::cpu0.data 17243.785084                       # average LoadLockedReq miss latency
system.cpu0.dcache.LoadLockedReq_avg_miss_latency::total 17243.785084                       # average LoadLockedReq miss latency
system.cpu0.dcache.StoreCondReq_avg_miss_latency::cpu0.data 16133.361380                       # average StoreCondReq miss latency
system.cpu0.dcache.StoreCondReq_avg_miss_latency::total 16133.361380                       # average StoreCondReq miss latency
system.cpu0.dcache.StoreCondFailReq_avg_miss_latency::cpu0.data          inf                       # average StoreCondFailReq miss latency
system.cpu0.dcache.StoreCondFailReq_avg_miss_latency::total          inf                       # average StoreCondFailReq miss latency
system.cpu0.dcache.demand_avg_miss_latency::cpu0.data 31401.123208                       # average overall miss latency
system.cpu0.dcache.demand_avg_miss_latency::total 31401.123208                       # average overall miss latency
system.cpu0.dcache.overall_avg_miss_latency::cpu0.data 31401.123208                       # average overall miss latency
system.cpu0.dcache.overall_avg_miss_latency::total 31401.123208                       # average overall miss latency
system.cpu0.dcache.blocked_cycles::no_mshrs        14011                       # number of cycles access was blocked
system.cpu0.dcache.blocked_cycles::no_targets            0                       # number of cycles access was blocked
system.cpu0.dcache.blocked::no_mshrs             1884                       # number of cycles access was blocked
system.cpu0.dcache.blocked::no_targets              0                       # number of cycles access was blocked
system.cpu0.dcache.avg_blocked_cycles::no_mshrs     7.436837                       # average number of cycles each access was blocked
system.cpu0.dcache.avg_blocked_cycles::no_targets          nan                       # average number of cycles each access was blocked
system.cpu0.dcache.writebacks::writebacks         8646                       # number of writebacks
system.cpu0.dcache.writebacks::total             8646                       # number of writebacks
system.cpu0.dcache.ReadReq_mshr_hits::cpu0.data        14045                       # number of ReadReq MSHR hits
system.cpu0.dcache.ReadReq_mshr_hits::total        14045                       # number of ReadReq MSHR hits
system.cpu0.dcache.WriteReq_mshr_hits::cpu0.data         7796                       # number of WriteReq MSHR hits
system.cpu0.dcache.WriteReq_mshr_hits::total         7796                       # number of WriteReq MSHR hits
system.cpu0.dcache.LoadLockedReq_mshr_hits::cpu0.data          687                       # number of LoadLockedReq MSHR hits
system.cpu0.dcache.LoadLockedReq_mshr_hits::total          687                       # number of LoadLockedReq MSHR hits
system.cpu0.dcache.demand_mshr_hits::cpu0.data        21841                       # number of demand (read+write) MSHR hits
system.cpu0.dcache.demand_mshr_hits::total        21841                       # number of demand (read+write) MSHR hits
system.cpu0.dcache.overall_mshr_hits::cpu0.data        21841                       # number of overall MSHR hits
system.cpu0.dcache.overall_mshr_hits::total        21841                       # number of overall MSHR hits
system.cpu0.dcache.ReadReq_mshr_misses::cpu0.data         9736                       # number of ReadReq MSHR misses
system.cpu0.dcache.ReadReq_mshr_misses::total         9736                       # number of ReadReq MSHR misses
system.cpu0.dcache.WriteReq_mshr_misses::cpu0.data        13412                       # number of WriteReq MSHR misses
system.cpu0.dcache.WriteReq_mshr_misses::total        13412                       # number of WriteReq MSHR misses
system.cpu0.dcache.LoadLockedReq_mshr_misses::cpu0.data          560                       # number of LoadLockedReq MSHR misses
system.cpu0.dcache.LoadLockedReq_mshr_misses::total          560                       # number of LoadLockedReq MSHR misses
system.cpu0.dcache.StoreCondReq_mshr_misses::cpu0.data         2377                       # number of StoreCondReq MSHR misses
system.cpu0.dcache.StoreCondReq_mshr_misses::total         2377                       # number of StoreCondReq MSHR misses
system.cpu0.dcache.demand_mshr_misses::cpu0.data        23148                       # number of demand (read+write) MSHR misses
system.cpu0.dcache.demand_mshr_misses::total        23148                       # number of demand (read+write) MSHR misses
system.cpu0.dcache.overall_mshr_misses::cpu0.data        23148                       # number of overall MSHR misses
system.cpu0.dcache.overall_mshr_misses::total        23148                       # number of overall MSHR misses
system.cpu0.dcache.ReadReq_mshr_miss_latency::cpu0.data    315859002                       # number of ReadReq MSHR miss cycles
system.cpu0.dcache.ReadReq_mshr_miss_latency::total    315859002                       # number of ReadReq MSHR miss cycles
system.cpu0.dcache.WriteReq_mshr_miss_latency::cpu0.data    448484543                       # number of WriteReq MSHR miss cycles
system.cpu0.dcache.WriteReq_mshr_miss_latency::total    448484543                       # number of WriteReq MSHR miss cycles
system.cpu0.dcache.LoadLockedReq_mshr_miss_latency::cpu0.data     11251000                       # number of LoadLockedReq MSHR miss cycles
system.cpu0.dcache.LoadLockedReq_mshr_miss_latency::total     11251000                       # number of LoadLockedReq MSHR miss cycles
system.cpu0.dcache.StoreCondReq_mshr_miss_latency::cpu0.data     33864985                       # number of StoreCondReq MSHR miss cycles
system.cpu0.dcache.StoreCondReq_mshr_miss_latency::total     33864985                       # number of StoreCondReq MSHR miss cycles
system.cpu0.dcache.StoreCondFailReq_mshr_miss_latency::cpu0.data      4266000                       # number of StoreCondFailReq MSHR miss cycles
system.cpu0.dcache.StoreCondFailReq_mshr_miss_latency::total      4266000                       # number of StoreCondFailReq MSHR miss cycles
system.cpu0.dcache.demand_mshr_miss_latency::cpu0.data    764343545                       # number of demand (read+write) MSHR miss cycles
system.cpu0.dcache.demand_mshr_miss_latency::total    764343545                       # number of demand (read+write) MSHR miss cycles
system.cpu0.dcache.overall_mshr_miss_latency::cpu0.data    764343545                       # number of overall MSHR miss cycles
system.cpu0.dcache.overall_mshr_miss_latency::total    764343545                       # number of overall MSHR miss cycles
system.cpu0.dcache.ReadReq_mshr_miss_rate::cpu0.data     0.000836                       # mshr miss rate for ReadReq accesses
[...]
system.cpu7.icache.ReadReq_avg_miss_latency::cpu7.inst 43946.794728                       # average ReadReq miss latency
system.cpu7.icache.ReadReq_avg_miss_latency::total 43946.794728                       # average ReadReq miss latency
system.cpu7.icache.demand_avg_miss_latency::cpu7.inst 43946.794728                       # average overall miss latency
system.cpu7.icache.demand_avg_miss_latency::total 43946.794728                       # average overall miss latency
system.cpu7.icache.overall_avg_miss_latency::cpu7.inst 43946.794728                       # average overall miss latency
system.cpu7.icache.overall_avg_miss_latency::total 43946.794728                       # average overall miss latency
system.cpu7.icache.blocked_cycles::no_mshrs           84                       # number of cycles access was blocked
system.cpu7.icache.blocked_cycles::no_targets            0                       # number of cycles access was blocked
system.cpu7.icache.blocked::no_mshrs                9                       # number of cycles access was blocked
system.cpu7.icache.blocked::no_targets              0                       # number of cycles access was blocked
system.cpu7.icache.avg_blocked_cycles::no_mshrs     9.333333                       # average number of cycles each access was blocked
system.cpu7.icache.avg_blocked_cycles::no_targets          nan                       # average number of cycles each access was blocked
system.cpu7.icache.writebacks::writebacks       131441                       # number of writebacks
system.cpu7.icache.writebacks::total           131441                       # number of writebacks
system.cpu7.icache.ReadReq_mshr_hits::cpu7.inst        19711                       # number of ReadReq MSHR hits
system.cpu7.icache.ReadReq_mshr_hits::total        19711                       # number of ReadReq MSHR hits
system.cpu7.icache.demand_mshr_hits::cpu7.inst        19711                       # number of demand (read+write) MSHR hits
system.cpu7.icache.demand_mshr_hits::total        19711                       # number of demand (read+write) MSHR hits
system.cpu7.icache.overall_mshr_hits::cpu7.inst        19711                       # number of overall MSHR hits
system.cpu7.icache.overall_mshr_hits::total        19711                       # number of overall MSHR hits
system.cpu7.icache.ReadReq_mshr_misses::cpu7.inst       131571                       # number of ReadReq MSHR misses
system.cpu7.icache.ReadReq_mshr_misses::total       131571                       # number of ReadReq MSHR misses
system.cpu7.icache.demand_mshr_misses::cpu7.inst       131571                       # number of demand (read+write) MSHR misses
system.cpu7.icache.demand_mshr_misses::total       131571                       # number of demand (read+write) MSHR misses
system.cpu7.icache.overall_mshr_misses::cpu7.inst       131571                       # number of overall MSHR misses
system.cpu7.icache.overall_mshr_misses::total       131571                       # number of overall MSHR misses
system.cpu7.icache.ReadReq_mshr_miss_latency::cpu7.inst   5895102000                       # number of ReadReq MSHR miss cycles
system.cpu7.icache.ReadReq_mshr_miss_latency::total   5895102000                       # number of ReadReq MSHR miss cycles
system.cpu7.icache.demand_mshr_miss_latency::cpu7.inst   5895102000                       # number of demand (read+write) MSHR miss cycles
system.cpu7.icache.demand_mshr_miss_latency::total   5895102000                       # number of demand (read+write) MSHR miss cycles
system.cpu7.icache.overall_mshr_miss_latency::cpu7.inst   5895102000                       # number of overall MSHR miss cycles
system.cpu7.icache.overall_mshr_miss_latency::total   5895102000                       # number of overall MSHR miss cycles
system.cpu7.icache.ReadReq_mshr_miss_rate::cpu7.inst     0.013730                       # mshr miss rate for ReadReq accesses
system.cpu7.icache.ReadReq_mshr_miss_rate::total     0.013730                       # mshr miss rate for ReadReq accesses
system.cpu7.icache.demand_mshr_miss_rate::cpu7.inst     0.013730                       # mshr miss rate for demand accesses
system.cpu7.icache.demand_mshr_miss_rate::total     0.013730                       # mshr miss rate for demand accesses
system.cpu7.icache.overall_mshr_miss_rate::cpu7.inst     0.013730                       # mshr miss rate for overall accesses
system.cpu7.icache.overall_mshr_miss_rate::total     0.013730                       # mshr miss rate for overall accesses
system.cpu7.icache.ReadReq_avg_mshr_miss_latency::cpu7.inst 44805.481451                       # average ReadReq mshr miss latency
system.cpu7.icache.ReadReq_avg_mshr_miss_latency::total 44805.481451                       # average ReadReq mshr miss latency
system.cpu7.icache.demand_avg_mshr_miss_latency::cpu7.inst 44805.481451                       # average overall mshr miss latency
system.cpu7.icache.demand_avg_mshr_miss_latency::total 44805.481451                       # average overall mshr miss latency
system.cpu7.icache.overall_avg_mshr_miss_latency::cpu7.inst 44805.481451                       # average overall mshr miss latency
system.cpu7.icache.overall_avg_mshr_miss_latency::total 44805.481451                       # average overall mshr miss latency
system.cpu_voltage_domain.voltage                   1                       # Voltage in Volts
system.cpu_clk_domain.clock                       500                       # Clock period in ticks
system.membus.snoop_filter.tot_requests       5710324                       # Total number of requests made to the snoop filter.
system.membus.snoop_filter.hit_single_requests      2051930                       # Number of requests hitting in the snoop filter with a single holder of the requested data.
system.membus.snoop_filter.hit_multi_requests      2160157                       # Number of requests hitting in the snoop filter with multiple (>1) holders of the requested data.
system.membus.snoop_filter.tot_snoops               0                       # Total number of snoops made to the snoop filter.
system.membus.snoop_filter.hit_single_snoops            0                       # Number of snoops hitting in the snoop filter with a single holder of the requested data.
system.membus.snoop_filter.hit_multi_snoops            0                       # Number of snoops hitting in the snoop filter with multiple (>1) holders of the requested data.
system.membus.pwrStateResidencyTicks::UNDEFINED 136391984000                       # Cumulative time (in ticks) in various power states
system.membus.trans_dist::ReadResp            2697229                       # Transaction distribution
system.membus.trans_dist::ReadRespWithInvalidate           73                       # Transaction distribution
system.membus.trans_dist::WritebackDirty        24451                       # Transaction distribution
system.membus.trans_dist::WritebackClean      2637924                       # Transaction distribution
system.membus.trans_dist::CleanEvict            22420                       # Transaction distribution
system.membus.trans_dist::UpgradeReq             9548                       # Transaction distribution
system.membus.trans_dist::SCUpgradeReq          13378                       # Transaction distribution
system.membus.trans_dist::UpgradeResp           19372                       # Transaction distribution
system.membus.trans_dist::SCUpgradeFailReq          830                       # Transaction distribution
system.membus.trans_dist::UpgradeFailResp          830                       # Transaction distribution
system.membus.trans_dist::ReadExReq             35204                       # Transaction distribution
system.membus.trans_dist::ReadExResp            35204                       # Transaction distribution
system.membus.trans_dist::ReadCleanReq        2638978                       # Transaction distribution
system.membus.trans_dist::ReadSharedReq         58324                       # Transaction distribution
system.membus.pkt_count_system.cpu0.icache.mem_side::system.physmem.port      4001838                       # Packet count per connected master and slave (bytes)
system.membus.pkt_count_system.cpu0.dcache.mem_side::system.physmem.port        53776                       # Packet count per connected master and slave (bytes)
system.membus.pkt_count_system.cpu1.icache.mem_side::system.physmem.port       591657                       # Packet count per connected master and slave (bytes)
system.membus.pkt_count_system.cpu1.dcache.mem_side::system.physmem.port        27522                       # Packet count per connected master and slave (bytes)
system.membus.pkt_count_system.cpu2.icache.mem_side::system.physmem.port       588856                       # Packet count per connected master and slave (bytes)
system.membus.pkt_count_system.cpu2.dcache.mem_side::system.physmem.port        24964                       # Packet count per connected master and slave (bytes)
system.membus.pkt_count_system.cpu3.icache.mem_side::system.physmem.port       590521                       # Packet count per connected master and slave (bytes)
system.membus.pkt_count_system.cpu3.dcache.mem_side::system.physmem.port        24763                       # Packet count per connected master and slave (bytes)
system.membus.pkt_count_system.cpu4.icache.mem_side::system.physmem.port       580229                       # Packet count per connected master and slave (bytes)
system.membus.pkt_count_system.cpu4.dcache.mem_side::system.physmem.port        18343                       # Packet count per connected master and slave (bytes)
system.membus.pkt_count_system.cpu5.icache.mem_side::system.physmem.port       576308                       # Packet count per connected master and slave (bytes)
system.membus.pkt_count_system.cpu5.dcache.mem_side::system.physmem.port        18239                       # Packet count per connected master and slave (bytes)
system.membus.pkt_count_system.cpu6.icache.mem_side::system.physmem.port       591853                       # Packet count per connected master and slave (bytes)
system.membus.pkt_count_system.cpu6.dcache.mem_side::system.physmem.port        23890                       # Packet count per connected master and slave (bytes)
system.membus.pkt_count_system.cpu7.icache.mem_side::system.physmem.port       394580                       # Packet count per connected master and slave (bytes)
system.membus.pkt_count_system.cpu7.dcache.mem_side::system.physmem.port        20311                       # Packet count per connected master and slave (bytes)
system.membus.pkt_count::total                8127650                       # Packet count per connected master and slave (bytes)
system.membus.pkt_size_system.cpu0.icache.mem_side::system.physmem.port    170742080                       # Cumulative packet size per connected master and slave (bytes)
system.membus.pkt_size_system.cpu0.dcache.mem_side::system.physmem.port      1445888                       # Cumulative packet size per connected master and slave (bytes)
system.membus.pkt_size_system.cpu1.icache.mem_side::system.physmem.port     25241024                       # Cumulative packet size per connected master and slave (bytes)
system.membus.pkt_size_system.cpu1.dcache.mem_side::system.physmem.port       471872                       # Cumulative packet size per connected master and slave (bytes)
system.membus.pkt_size_system.cpu2.icache.mem_side::system.physmem.port     25121408                       # Cumulative packet size per connected master and slave (bytes)
system.membus.pkt_size_system.cpu2.dcache.mem_side::system.physmem.port       473984                       # Cumulative packet size per connected master and slave (bytes)
system.membus.pkt_size_system.cpu3.icache.mem_side::system.physmem.port     25192512                       # Cumulative packet size per connected master and slave (bytes)
system.membus.pkt_size_system.cpu3.dcache.mem_side::system.physmem.port       476480                       # Cumulative packet size per connected master and slave (bytes)
system.membus.pkt_size_system.cpu4.icache.mem_side::system.physmem.port     24753664                       # Cumulative packet size per connected master and slave (bytes)
system.membus.pkt_size_system.cpu4.dcache.mem_side::system.physmem.port       469696                       # Cumulative packet size per connected master and slave (bytes)
system.membus.pkt_size_system.cpu5.icache.mem_side::system.physmem.port     24586368                       # Cumulative packet size per connected master and slave (bytes)
system.membus.pkt_size_system.cpu5.dcache.mem_side::system.physmem.port       468800                       # Cumulative packet size per connected master and slave (bytes)
system.membus.pkt_size_system.cpu6.icache.mem_side::system.physmem.port     25249664                       # Cumulative packet size per connected master and slave (bytes)
system.membus.pkt_size_system.cpu6.dcache.mem_side::system.physmem.port       477760                       # Cumulative packet size per connected master and slave (bytes)
system.membus.pkt_size_system.cpu7.icache.mem_side::system.physmem.port     16832576                       # Cumulative packet size per connected master and slave (bytes)
system.membus.pkt_size_system.cpu7.dcache.mem_side::system.physmem.port       330176                       # Cumulative packet size per connected master and slave (bytes)
system.membus.pkt_size::total               342333952                       # Cumulative packet size per connected master and slave (bytes)
system.membus.snoops                            66115                       # Total snoops (count)
system.membus.snoopTraffic                    2991552                       # Total snoop traffic (bytes)
system.membus.snoop_fanout::samples           2972172                       # Request fanout histogram
system.membus.snoop_fanout::mean             1.169392                       # Request fanout histogram
system.membus.snoop_fanout::stdev            1.718507                       # Request fanout histogram
system.membus.snoop_fanout::underflows              0      0.00%      0.00% # Request fanout histogram
system.membus.snoop_fanout::0                 1498297     50.41%     50.41% # Request fanout histogram
system.membus.snoop_fanout::1                  567986     19.11%     69.52% # Request fanout histogram
system.membus.snoop_fanout::2                  429146     14.44%     83.96% # Request fanout histogram
system.membus.snoop_fanout::3                  236158      7.95%     91.91% # Request fanout histogram
system.membus.snoop_fanout::4                   87032      2.93%     94.83% # Request fanout histogram
system.membus.snoop_fanout::5                   59881      2.01%     96.85% # Request fanout histogram
system.membus.snoop_fanout::6                   41952      1.41%     98.26% # Request fanout histogram
system.membus.snoop_fanout::7                   30374      1.02%     99.28% # Request fanout histogram
system.membus.snoop_fanout::8                    3081      0.10%     99.39% # Request fanout histogram
system.membus.snoop_fanout::9                    3587      0.12%     99.51% # Request fanout histogram
system.membus.snoop_fanout::10                   4424      0.15%     99.65% # Request fanout histogram
system.membus.snoop_fanout::11                   3567      0.12%     99.78% # Request fanout histogram
system.membus.snoop_fanout::12                   2206      0.07%     99.85% # Request fanout histogram
system.membus.snoop_fanout::13                   1735      0.06%     99.91% # Request fanout histogram
system.membus.snoop_fanout::14                   1607      0.05%     99.96% # Request fanout histogram
system.membus.snoop_fanout::15                   1139      0.04%    100.00% # Request fanout histogram
system.membus.snoop_fanout::16                      0      0.00%    100.00% # Request fanout histogram
system.membus.snoop_fanout::overflows               0      0.00%    100.00% # Request fanout histogram
system.membus.snoop_fanout::min_value               0                       # Request fanout histogram
system.membus.snoop_fanout::max_value              15                       # Request fanout histogram
system.membus.snoop_fanout::total             2972172                       # Request fanout histogram
system.membus.reqLayer0.occupancy         16452999018                       # Layer occupancy (ticks)
system.membus.reqLayer0.utilization              12.1                       # Layer utilization (%)
system.membus.respLayer1.occupancy         6669965000                       # Layer occupancy (ticks)
system.membus.respLayer1.utilization              4.9                       # Layer utilization (%)
system.membus.respLayer2.occupancy          113572782                       # Layer occupancy (ticks)
system.membus.respLayer2.utilization              0.1                       # Layer utilization (%)
system.membus.respLayer5.occupancy          986330000                       # Layer occupancy (ticks)
system.membus.respLayer5.utilization              0.7                       # Layer utilization (%)
system.membus.respLayer6.occupancy           70495897                       # Layer occupancy (ticks)
system.membus.respLayer6.utilization              0.1                       # Layer utilization (%)
system.membus.respLayer9.occupancy          981670000                       # Layer occupancy (ticks)
system.membus.respLayer9.utilization              0.7                       # Layer utilization (%)
system.membus.respLayer10.occupancy          59557102                       # Layer occupancy (ticks)
system.membus.respLayer10.utilization             0.0                       # Layer utilization (%)
system.membus.respLayer13.occupancy         984440000                       # Layer occupancy (ticks)
system.membus.respLayer13.utilization             0.7                       # Layer utilization (%)
system.membus.respLayer14.occupancy          58347141                       # Layer occupancy (ticks)
system.membus.respLayer14.utilization             0.0                       # Layer utilization (%)
system.membus.respLayer17.occupancy         967265000                       # Layer occupancy (ticks)
system.membus.respLayer17.utilization             0.7                       # Layer utilization (%)
system.membus.respLayer18.occupancy          38481425                       # Layer occupancy (ticks)
system.membus.respLayer18.utilization             0.0                       # Layer utilization (%)
system.membus.respLayer21.occupancy         960730000                       # Layer occupancy (ticks)
system.membus.respLayer21.utilization             0.7                       # Layer utilization (%)
system.membus.respLayer22.occupancy          38387095                       # Layer occupancy (ticks)
system.membus.respLayer22.utilization             0.0                       # Layer utilization (%)
system.membus.respLayer25.occupancy         986635000                       # Layer occupancy (ticks)
system.membus.respLayer25.utilization             0.7                       # Layer utilization (%)
system.membus.respLayer26.occupancy          57494226                       # Layer occupancy (ticks)
system.membus.respLayer26.utilization             0.0                       # Layer utilization (%)
system.membus.respLayer29.occupancy         657855000                       # Layer occupancy (ticks)
system.membus.respLayer29.utilization             0.5                       # Layer utilization (%)
system.membus.respLayer30.occupancy          56083140                       # Layer occupancy (ticks)
system.membus.respLayer30.utilization             0.0                       # Layer utilization (%)

---------- End Simulation Statistics   ----------
