
---------- Begin Simulation Statistics ----------
sim_seconds                                  0.545537                       # Number of seconds simulated
sim_ticks                                545537231000                       # Number of ticks simulated
final_tick                               545537231000                       # Number of ticks from beginning of simulation (restored from checkpoints and never reset)
sim_freq                                 1000000000000                       # Frequency of simulated ticks
host_inst_rate                                 217935                       # Simulator instruction rate (inst/s)
host_op_rate                                   246387                       # Simulator op (including micro ops) rate (op/s)
host_tick_rate                              209070232                       # Simulator tick rate (ticks/s)
host_mem_usage                                 720780                       # Number of bytes of host memory used
host_seconds                                  2609.35                       # Real time elapsed on the host
sim_insts                                   568667623                       # Number of instructions simulated
sim_ops                                     642909341                       # Number of ops (including micro ops) simulated
system.voltage_domain.voltage                       1                       # Voltage in Volts
system.clk_domain.clock                          1000                       # Clock period in ticks
system.physmem.pwrStateResidencyTicks::UNDEFINED 545537231000                       # Cumulative time (in ticks) in various power states
system.physmem.bytes_read::cpu0.inst           117568                       # Number of bytes read from this memory
system.physmem.bytes_read::cpu0.data           284992                       # Number of bytes read from this memory
system.physmem.bytes_read::total               402560                       # Number of bytes read from this memory
system.physmem.bytes_inst_read::cpu0.inst       117568                       # Number of instructions bytes read from this memory
system.physmem.bytes_inst_read::total          117568                       # Number of instructions bytes read from this memory
system.physmem.bytes_written::writebacks        71296                       # Number of bytes written to this memory
system.physmem.bytes_written::total             71296                       # Number of bytes written to this memory
system.physmem.num_reads::cpu0.inst              1837                       # Number of read requests responded to by this memory
system.physmem.num_reads::cpu0.data              4453                       # Number of read requests responded to by this memory
system.physmem.num_reads::total                  6290                       # Number of read requests responded to by this memory
system.physmem.num_writes::writebacks            1114                       # Number of write requests responded to by this memory
system.physmem.num_writes::total                 1114                       # Number of write requests responded to by this memory
system.physmem.bw_read::cpu0.inst              215509                       # Total read bandwidth from this memory (bytes/s)
system.physmem.bw_read::cpu0.data              522406                       # Total read bandwidth from this memory (bytes/s)
system.physmem.bw_read::total                  737915                       # Total read bandwidth from this memory (bytes/s)
system.physmem.bw_inst_read::cpu0.inst         215509                       # Instruction read bandwidth from this memory (bytes/s)
system.physmem.bw_inst_read::total             215509                       # Instruction read bandwidth from this memory (bytes/s)
system.physmem.bw_write::writebacks            130690                       # Write bandwidth from this memory (bytes/s)
system.physmem.bw_write::total                 130690                       # Write bandwidth from this memory (bytes/s)
system.physmem.bw_total::writebacks            130690                       # Total bandwidth to/from this memory (bytes/s)
system.physmem.bw_total::cpu0.inst             215509                       # Total bandwidth to/from this memory (bytes/s)
system.physmem.bw_total::cpu0.data             522406                       # Total bandwidth to/from this memory (bytes/s)
system.physmem.bw_total::total                 868604                       # Total bandwidth to/from this memory (bytes/s)
system.pwrStateResidencyTicks::UNDEFINED 545537231000                       # Cumulative time (in ticks) in various power states
system.cpu0.branchPred.lookups              116590306                       # Number of BP lookups
system.cpu0.branchPred.condPredicted         67246400                       # Number of conditional branches predicted
system.cpu0.branchPred.condIncorrect          2794809                       # Number of conditional branches incorrect
system.cpu0.branchPred.BTBLookups            64754848                       # Number of BTB lookups
system.cpu0.branchPred.BTBHits               55155213                       # Number of BTB hits
system.cpu0.branchPred.BTBCorrect                   0                       # Number of correct BTB predictions (this stat may not work properly.
system.cpu0.branchPred.BTBHitPct            85.175419                       # BTB Hit Percentage
system.cpu0.branchPred.usedRAS               16025079                       # Number of times the RAS was used to get a target.
system.cpu0.branchPred.RASInCorrect            300438                       # Number of incorrect RAS predictions.
system.cpu0.branchPred.indirectLookups        3629186                       # Number of indirect predictor lookups.
system.cpu0.branchPred.indirectHits           3595164                       # Number of indirect target hits.
system.cpu0.branchPred.indirectMisses           34022                       # Number of indirect misses.
system.cpu0.branchPredindirectMispredicted        25998                       # Number of mispredicted indirect branches.
system.cpu0.dstage2_mmu.stage2_tlb.walker.pwrStateResidencyTicks::UNDEFINED 545537231000                       # Cumulative time (in ticks) in various power states
system.cpu0.dstage2_mmu.stage2_tlb.walker.walks            0                       # Table walker walks requested
system.cpu0.dstage2_mmu.stage2_tlb.walker.walkRequestOrigin_Requested::Data            0                       # Table walker requests started/completed, data/inst
system.cpu0.dstage2_mmu.stage2_tlb.walker.walkRequestOrigin_Requested::Inst            0                       # Table walker requests started/completed, data/inst
system.cpu0.dstage2_mmu.stage2_tlb.walker.walkRequestOrigin_Requested::total            0                       # Table walker requests started/completed, data/inst
system.cpu0.dstage2_mmu.stage2_tlb.walker.walkRequestOrigin_Completed::Data            0                       # Table walker requests started/completed, data/inst
system.cpu0.dstage2_mmu.stage2_tlb.walker.walkRequestOrigin_Completed::Inst            0                       # Table walker requests started/completed, data/inst
system.cpu0.dstage2_mmu.stage2_tlb.walker.walkRequestOrigin_Completed::total            0                       # Table walker requests started/completed, data/inst
system.cpu0.dstage2_mmu.stage2_tlb.walker.walkRequestOrigin::total            0                       # Table walker requests started/completed, data/inst
system.cpu0.dstage2_mmu.stage2_tlb.inst_hits            0                       # ITB inst hits
system.cpu0.dstage2_mmu.stage2_tlb.inst_misses            0                       # ITB inst misses
system.cpu0.dstage2_mmu.stage2_tlb.read_hits            0                       # DTB read hits
system.cpu0.dstage2_mmu.stage2_tlb.read_misses            0                       # DTB read misses
system.cpu0.dstage2_mmu.stage2_tlb.write_hits            0                       # DTB write hits
system.cpu0.dstage2_mmu.stage2_tlb.write_misses            0                       # DTB write misses
system.cpu0.dstage2_mmu.stage2_tlb.flush_tlb            0                       # Number of times complete TLB was flushed
system.cpu0.dstage2_mmu.stage2_tlb.flush_tlb_mva            0                       # Number of times TLB was flushed by MVA
system.cpu0.dstage2_mmu.stage2_tlb.flush_tlb_mva_asid            0                       # Number of times TLB was flushed by MVA & ASID
system.cpu0.dstage2_mmu.stage2_tlb.flush_tlb_asid            0                       # Number of times TLB was flushed by ASID
system.cpu0.dstage2_mmu.stage2_tlb.flush_entries            0                       # Number of entries that have been flushed from TLB
system.cpu0.dstage2_mmu.stage2_tlb.align_faults            0                       # Number of TLB faults due to alignment restrictions
system.cpu0.dstage2_mmu.stage2_tlb.prefetch_faults            0                       # Number of TLB faults due to prefetch
system.cpu0.dstage2_mmu.stage2_tlb.domain_faults            0                       # Number of TLB faults due to domain restrictions
system.cpu0.dstage2_mmu.stage2_tlb.perms_faults            0                       # Number of TLB faults due to permissions restrictions
system.cpu0.dstage2_mmu.stage2_tlb.read_accesses            0                       # DTB read accesses
system.cpu0.dstage2_mmu.stage2_tlb.write_accesses            0                       # DTB write accesses
system.cpu0.dstage2_mmu.stage2_tlb.inst_accesses            0                       # ITB inst accesses
system.cpu0.dstage2_mmu.stage2_tlb.hits             0                       # DTB hits
system.cpu0.dstage2_mmu.stage2_tlb.misses            0                       # DTB misses
system.cpu0.dstage2_mmu.stage2_tlb.accesses            0                       # DTB accesses
system.cpu0.dtb.walker.pwrStateResidencyTicks::UNDEFINED 545537231000                       # Cumulative time (in ticks) in various power states
system.cpu0.dtb.walker.walks                        0                       # Table walker walks requested
system.cpu0.dtb.walker.walkRequestOrigin_Requested::Data            0                       # Table walker requests started/completed, data/inst
system.cpu0.dtb.walker.walkRequestOrigin_Requested::Inst            0                       # Table walker requests started/completed, data/inst
system.cpu0.dtb.walker.walkRequestOrigin_Requested::total            0                       # Table walker requests started/completed, data/inst
system.cpu0.dtb.walker.walkRequestOrigin_Completed::Data            0                       # Table walker requests started/completed, data/inst
system.cpu0.dtb.walker.walkRequestOrigin_Completed::Inst            0                       # Table walker requests started/completed, data/inst
system.cpu0.dtb.walker.walkRequestOrigin_Completed::total            0                       # Table walker requests started/completed, data/inst
system.cpu0.dtb.walker.walkRequestOrigin::total            0                       # Table walker requests started/completed, data/inst
system.cpu0.dtb.inst_hits                           0                       # ITB inst hits
system.cpu0.dtb.inst_misses                         0                       # ITB inst misses
system.cpu0.dtb.read_hits                           0                       # DTB read hits
system.cpu0.dtb.read_misses                         0                       # DTB read misses
system.cpu0.dtb.write_hits                          0                       # DTB write hits
system.cpu0.dtb.write_misses                        0                       # DTB write misses
system.cpu0.dtb.flush_tlb                           0                       # Number of times complete TLB was flushed
system.cpu0.dtb.flush_tlb_mva                       0                       # Number of times TLB was flushed by MVA
system.cpu0.dtb.flush_tlb_mva_asid                  0                       # Number of times TLB was flushed by MVA & ASID
system.cpu0.dtb.flush_tlb_asid                      0                       # Number of times TLB was flushed by ASID
system.cpu0.dtb.flush_entries                       0                       # Number of entries that have been flushed from TLB
system.cpu0.dtb.align_faults                        0                       # Number of TLB faults due to alignment restrictions
system.cpu0.dtb.prefetch_faults                     0                       # Number of TLB faults due to prefetch
system.cpu0.dtb.domain_faults                       0                       # Number of TLB faults due to domain restrictions
system.cpu0.dtb.perms_faults                        0                       # Number of TLB faults due to permissions restrictions
system.cpu0.dtb.read_accesses                       0                       # DTB read accesses
system.cpu0.dtb.write_accesses                      0                       # DTB write accesses
system.cpu0.dtb.inst_accesses                       0                       # ITB inst accesses
system.cpu0.dtb.hits                                0                       # DTB hits
system.cpu0.dtb.misses                              0                       # DTB misses
system.cpu0.dtb.accesses                            0                       # DTB accesses
system.cpu0.istage2_mmu.stage2_tlb.walker.pwrStateResidencyTicks::UNDEFINED 545537231000                       # Cumulative time (in ticks) in various power states
system.cpu0.istage2_mmu.stage2_tlb.walker.walks            0                       # Table walker walks requested
system.cpu0.istage2_mmu.stage2_tlb.walker.walkRequestOrigin_Requested::Data            0                       # Table walker requests started/completed, data/inst
system.cpu0.istage2_mmu.stage2_tlb.walker.walkRequestOrigin_Requested::Inst            0                       # Table walker requests started/completed, data/inst
system.cpu0.istage2_mmu.stage2_tlb.walker.walkRequestOrigin_Requested::total            0                       # Table walker requests started/completed, data/inst
system.cpu0.istage2_mmu.stage2_tlb.walker.walkRequestOrigin_Completed::Data            0                       # Table walker requests started/completed, data/inst
system.cpu0.istage2_mmu.stage2_tlb.walker.walkRequestOrigin_Completed::Inst            0                       # Table walker requests started/completed, data/inst
system.cpu0.istage2_mmu.stage2_tlb.walker.walkRequestOrigin_Completed::total            0                       # Table walker requests started/completed, data/inst
system.cpu0.istage2_mmu.stage2_tlb.walker.walkRequestOrigin::total            0                       # Table walker requests started/completed, data/inst
system.cpu0.istage2_mmu.stage2_tlb.inst_hits            0                       # ITB inst hits
system.cpu0.istage2_mmu.stage2_tlb.inst_misses            0                       # ITB inst misses
system.cpu0.istage2_mmu.stage2_tlb.read_hits            0                       # DTB read hits
system.cpu0.istage2_mmu.stage2_tlb.read_misses            0                       # DTB read misses
system.cpu0.istage2_mmu.stage2_tlb.write_hits            0                       # DTB write hits
system.cpu0.istage2_mmu.stage2_tlb.write_misses            0                       # DTB write misses
system.cpu0.istage2_mmu.stage2_tlb.flush_tlb            0                       # Number of times complete TLB was flushed
system.cpu0.istage2_mmu.stage2_tlb.flush_tlb_mva            0                       # Number of times TLB was flushed by MVA
system.cpu0.istage2_mmu.stage2_tlb.flush_tlb_mva_asid            0                       # Number of times TLB was flushed by MVA & ASID
system.cpu0.istage2_mmu.stage2_tlb.flush_tlb_asid            0                       # Number of times TLB was flushed by ASID
system.cpu0.istage2_mmu.stage2_tlb.flush_entries            0                       # Number of entries that have been flushed from TLB
system.cpu0.istage2_mmu.stage2_tlb.align_faults            0                       # Number of TLB faults due to alignment restrictions
system.cpu0.istage2_mmu.stage2_tlb.prefetch_faults            0                       # Number of TLB faults due to prefetch
system.cpu0.istage2_mmu.stage2_tlb.domain_faults            0                       # Number of TLB faults due to domain restrictions
system.cpu0.istage2_mmu.stage2_tlb.perms_faults            0                       # Number of TLB faults due to permissions restrictions
system.cpu0.istage2_mmu.stage2_tlb.read_accesses            0                       # DTB read accesses
system.cpu0.istage2_mmu.stage2_tlb.write_accesses            0                       # DTB write accesses
system.cpu0.istage2_mmu.stage2_tlb.inst_accesses            0                       # ITB inst accesses
system.cpu0.istage2_mmu.stage2_tlb.hits             0                       # DTB hits
system.cpu0.istage2_mmu.stage2_tlb.misses            0                       # DTB misses
system.cpu0.istage2_mmu.stage2_tlb.accesses            0                       # DTB accesses
system.cpu0.itb.walker.pwrStateResidencyTicks::UNDEFINED 545537231000                       # Cumulative time (in ticks) in various power states
system.cpu0.itb.walker.walks                        0                       # Table walker walks requested
system.cpu0.itb.walker.walkRequestOrigin_Requested::Data            0                       # Table walker requests started/completed, data/inst
system.cpu0.itb.walker.walkRequestOrigin_Requested::Inst            0                       # Table walker requests started/completed, data/inst
system.cpu0.itb.walker.walkRequestOrigin_Requested::total            0                       # Table walker requests started/completed, data/inst
system.cpu0.itb.walker.walkRequestOrigin_Completed::Data            0                       # Table walker requests started/completed, data/inst
system.cpu0.itb.walker.walkRequestOrigin_Completed::Inst            0                       # Table walker requests started/completed, data/inst
system.cpu0.itb.walker.walkRequestOrigin_Completed::total            0                       # Table walker requests started/completed, data/inst
system.cpu0.itb.walker.walkRequestOrigin::total            0                       # Table walker requests started/completed, data/inst
system.cpu0.itb.inst_hits                           0                       # ITB inst hits
system.cpu0.itb.inst_misses                         0                       # ITB inst misses
system.cpu0.itb.read_hits                           0                       # DTB read hits
system.cpu0.itb.read_misses                         0                       # DTB read misses
system.cpu0.itb.write_hits                          0                       # DTB write hits
system.cpu0.itb.write_misses                        0                       # DTB write misses
system.cpu0.itb.flush_tlb                           0                       # Number of times complete TLB was flushed
system.cpu0.itb.flush_tlb_mva                       0                       # Number of times TLB was flushed by MVA
system.cpu0.itb.flush_tlb_mva_asid                  0                       # Number of times TLB was flushed by MVA & ASID
system.cpu0.itb.flush_tlb_asid                      0                       # Number of times TLB was flushed by ASID
system.cpu0.itb.flush_entries                       0                       # Number of entries that have been flushed from TLB
system.cpu0.itb.align_faults                        0                       # Number of TLB faults due to alignment restrictions
system.cpu0.itb.prefetch_faults                     0                       # Number of TLB faults due to prefetch
system.cpu0.itb.domain_faults                       0                       # Number of TLB faults due to domain restrictions
system.cpu0.itb.perms_faults                        0                       # Number of TLB faults due to permissions restrictions
system.cpu0.itb.read_accesses                       0                       # DTB read accesses
system.cpu0.itb.write_accesses                      0                       # DTB write accesses
system.cpu0.itb.inst_accesses                       0                       # ITB inst accesses
system.cpu0.itb.hits                                0                       # DTB hits
system.cpu0.itb.misses                              0                       # DTB misses
system.cpu0.itb.accesses                            0                       # DTB accesses
system.cpu0.workload.num_syscalls                9847                       # Number of system calls
system.cpu0.pwrStateResidencyTicks::ON   545537231000                       # Cumulative time (in ticks) in various power states
system.cpu0.numCycles                       545537232                       # number of cpu cycles simulated
system.cpu0.numWorkItemsStarted                     0                       # number of work items this cpu started
system.cpu0.numWorkItemsCompleted                   0                       # number of work items this cpu completed
system.cpu0.fetch.icacheStallCycles          96740708                       # Number of cycles fetch is stalled on an Icache miss
system.cpu0.fetch.Insts                     670413691                       # Number of instructions fetch has processed
system.cpu0.fetch.Branches                  116590306                       # Number of branches that fetch encountered
system.cpu0.fetch.predictedBranches          74775456                       # Number of branches that fetch has predicted taken
system.cpu0.fetch.Cycles                    445930379                       # Number of cycles fetch has run and was not squashing or blocked
system.cpu0.fetch.SquashCycles                5628763                       # Number of cycles fetch has spent squashing
system.cpu0.fetch.MiscStallCycles                   3                       # Number of cycles fetch has spent waiting on interrupts, or bad addresses, or out of MSHRs
system.cpu0.fetch.PendingTrapStallCycles          215                       # Number of stall cycles due to pending traps
system.cpu0.fetch.CacheLines                 93654236                       # Number of cache lines fetched
system.cpu0.fetch.IcacheSquashes               453245                       # Number of outstanding Icache misses that were squashed
system.cpu0.fetch.rateDist::samples         545485686                       # Number of instructions fetched each cycle (Total)
system.cpu0.fetch.rateDist::mean             1.390952                       # Number of instructions fetched each cycle (Total)
system.cpu0.fetch.rateDist::stdev            0.851183                       # Number of instructions fetched each cycle (Total)
system.cpu0.fetch.rateDist::underflows              0      0.00%      0.00% # Number of instructions fetched each cycle (Total)
system.cpu0.fetch.rateDist::0               132663333     24.32%     24.32% # Number of instructions fetched each cycle (Total)
system.cpu0.fetch.rateDist::1                66900073     12.26%     36.58% # Number of instructions fetched each cycle (Total)
system.cpu0.fetch.rateDist::2               345922280     63.42%    100.00% # Number of instructions fetched each cycle (Total)
system.cpu0.fetch.rateDist::overflows               0      0.00%    100.00% # Number of instructions fetched each cycle (Total)
system.cpu0.fetch.rateDist::min_value               0                       # Number of instructions fetched each cycle (Total)
system.cpu0.fetch.rateDist::max_value               2                       # Number of instructions fetched each cycle (Total)
system.cpu0.fetch.rateDist::total           545485686                       # Number of instructions fetched each cycle (Total)
system.cpu0.fetch.branchRate                 0.213716                       # Number of branch fetches per cycle
system.cpu0.fetch.rate                       1.228905                       # Number of inst fetches per cycle
system.cpu0.decode.IdleCycles                80313572                       # Number of cycles decode is idle
system.cpu0.decode.BlockedCycles             81780705                       # Number of cycles decode is blocked
system.cpu0.decode.RunCycles                294344382                       # Number of cycles decode is running
system.cpu0.decode.UnblockCycles             86442566                       # Number of cycles decode is unblocking
system.cpu0.decode.SquashCycles               2604461                       # Number of cycles decode is squashing
system.cpu0.decode.BranchResolved            34277114                       # Number of times decode resolved a branch
system.cpu0.decode.BranchMispred               211417                       # Number of times decode detected a branch misprediction
system.cpu0.decode.DecodedInsts             741103582                       # Number of instructions handled by decode
system.cpu0.decode.SquashedInsts               355034                       # Number of squashed instructions handled by decode
system.cpu0.rename.SquashCycles               2604461                       # Number of cycles rename is squashing
system.cpu0.rename.IdleCycles                98612496                       # Number of cycles rename is idle
system.cpu0.rename.BlockCycles                9420190                       # Number of cycles rename is blocking
system.cpu0.rename.serializeStallCycles       2787836                       # count of cycles rename stalled for serializing inst
system.cpu0.rename.RunCycles                362339187                       # Number of cycles rename is running
system.cpu0.rename.UnblockCycles             69721516                       # Number of cycles rename is unblocking
system.cpu0.rename.RenamedInsts             737067472                       # Number of instructions processed by rename
system.cpu0.rename.IQFullEvents              53318103                       # Number of times rename has blocked due to IQ full
system.cpu0.rename.LQFullEvents                374467                       # Number of times rename has blocked due to LQ full
system.cpu0.rename.SQFullEvents                  9612                       # Number of times rename has blocked due to SQ full
system.cpu0.rename.RenamedOperands          938389326                       # Number of destination operands rename has renamed
system.cpu0.rename.RenameLookups           3428421422                       # Number of register rename lookups that rename has made
system.cpu0.rename.int_rename_lookups       957787887                       # Number of integer rename lookups
system.cpu0.rename.fp_rename_lookups               16                       # Number of floating rename lookups
system.cpu0.rename.CommittedMaps            803210931                       # Number of HB maps that are committed
system.cpu0.rename.UndoneMaps               135178395                       # Number of HB maps that are undone due to squashing
system.cpu0.rename.serializingInsts             98196                       # count of serializing insts renamed
system.cpu0.rename.tempSerializingInsts         49329                       # count of temporary serializing insts renamed
system.cpu0.rename.skidInsts                 74978229                       # count of insts added to the skid buffer
system.cpu0.memDep0.insertedLoads            90991071                       # Number of loads inserted to the mem dependence unit.
system.cpu0.memDep0.insertedStores           56173279                       # Number of stores inserted to the mem dependence unit.
system.cpu0.memDep0.conflictingLoads         32762071                       # Number of conflicting loads.
system.cpu0.memDep0.conflictingStores        12591957                       # Number of conflicting stores.
system.cpu0.iq.iqInstsAdded                 729083257                       # Number of instructions added to the IQ (excludes non-spec)
system.cpu0.iq.iqNonSpecInstsAdded             106609                       # Number of non-speculative instructions added to the IQ
system.cpu0.iq.iqInstsIssued                655163581                       # Number of instructions issued
system.cpu0.iq.iqSquashedInstsIssued          9996797                       # Number of squashed instructions issued
system.cpu0.iq.iqSquashedInstsExamined       86280525                       # Number of squashed instructions iterated over during squash; mainly for profiling
system.cpu0.iq.iqSquashedOperandsExamined    354055910                       # Number of squashed operands that are examined and possibly removed from graph
system.cpu0.iq.iqSquashedNonSpecRemoved           979                       # Number of squashed non-spec instructions that were removed
system.cpu0.iq.issued_per_cycle::samples    545485686                       # Number of insts issued each cycle
system.cpu0.iq.issued_per_cycle::mean        1.201065                       # Number of insts issued each cycle
system.cpu0.iq.issued_per_cycle::stdev       0.515398                       # Number of insts issued each cycle
system.cpu0.iq.issued_per_cycle::underflows            0      0.00%      0.00% # Number of insts issued each cycle
system.cpu0.iq.issued_per_cycle::0           28637273      5.25%      5.25% # Number of insts issued each cycle
system.cpu0.iq.issued_per_cycle::1          378533245     69.39%     74.64% # Number of insts issued each cycle
system.cpu0.iq.issued_per_cycle::2          138315168     25.36%    100.00% # Number of insts issued each cycle
system.cpu0.iq.issued_per_cycle::overflows            0      0.00%    100.00% # Number of insts issued each cycle
system.cpu0.iq.issued_per_cycle::min_value            0                       # Number of insts issued each cycle
system.cpu0.iq.issued_per_cycle::max_value            2                       # Number of insts issued each cycle
system.cpu0.iq.issued_per_cycle::total      545485686                       # Number of insts issued each cycle
system.cpu0.iq.fu_full::No_OpClass                  0      0.00%      0.00% # attempts to use FU when none available
system.cpu0.iq.fu_full::IntAlu              405899407     94.91%     94.91% # attempts to use FU when none available
system.cpu0.iq.fu_full::IntMult                     0      0.00%     94.91% # attempts to use FU when none available
system.cpu0.iq.fu_full::IntDiv                      0      0.00%     94.91% # attempts to use FU when none available
system.cpu0.iq.fu_full::FloatAdd                    0      0.00%     94.91% # attempts to use FU when none available
system.cpu0.iq.fu_full::FloatCmp                    0      0.00%     94.91% # attempts to use FU when none available
system.cpu0.iq.fu_full::FloatCvt                    0      0.00%     94.91% # attempts to use FU when none available
system.cpu0.iq.fu_full::FloatMult                   0      0.00%     94.91% # attempts to use FU when none available
system.cpu0.iq.fu_full::FloatMultAcc                0      0.00%     94.91% # attempts to use FU when none available
system.cpu0.iq.fu_full::FloatDiv                    0      0.00%     94.91% # attempts to use FU when none available
system.cpu0.iq.fu_full::FloatMisc                   0      0.00%     94.91% # attempts to use FU when none available
system.cpu0.iq.fu_full::FloatSqrt                   0      0.00%     94.91% # attempts to use FU when none available
system.cpu0.iq.fu_full::SimdAdd                     0      0.00%     94.91% # attempts to use FU when none available
system.cpu0.iq.fu_full::SimdAddAcc                  0      0.00%     94.91% # attempts to use FU when none available
system.cpu0.iq.fu_full::SimdAlu                     0      0.00%     94.91% # attempts to use FU when none available
system.cpu0.iq.fu_full::SimdCmp                     0      0.00%     94.91% # attempts to use FU when none available
system.cpu0.iq.fu_full::SimdCvt                     0      0.00%     94.91% # attempts to use FU when none available
system.cpu0.iq.fu_full::SimdMisc                    0      0.00%     94.91% # attempts to use FU when none available
system.cpu0.iq.fu_full::SimdMult                    0      0.00%     94.91% # attempts to use FU when none available
system.cpu0.iq.fu_full::SimdMultAcc                 0      0.00%     94.91% # attempts to use FU when none available
system.cpu0.iq.fu_full::SimdShift                   0      0.00%     94.91% # attempts to use FU when none available
system.cpu0.iq.fu_full::SimdShiftAcc                0      0.00%     94.91% # attempts to use FU when none available
system.cpu0.iq.fu_full::SimdSqrt                    0      0.00%     94.91% # attempts to use FU when none available
system.cpu0.iq.fu_full::SimdFloatAdd                0      0.00%     94.91% # attempts to use FU when none available
system.cpu0.iq.fu_full::SimdFloatAlu                0      0.00%     94.91% # attempts to use FU when none available
system.cpu0.iq.fu_full::SimdFloatCmp                0      0.00%     94.91% # attempts to use FU when none available
system.cpu0.iq.fu_full::SimdFloatCvt                0      0.00%     94.91% # attempts to use FU when none available
system.cpu0.iq.fu_full::SimdFloatDiv                0      0.00%     94.91% # attempts to use FU when none available
system.cpu0.iq.fu_full::SimdFloatMisc               0      0.00%     94.91% # attempts to use FU when none available
system.cpu0.iq.fu_full::SimdFloatMult               0      0.00%     94.91% # attempts to use FU when none available
system.cpu0.iq.fu_full::SimdFloatMultAcc            0      0.00%     94.91% # attempts to use FU when none available
system.cpu0.iq.fu_full::SimdFloatSqrt               0      0.00%     94.91% # attempts to use FU when none available
system.cpu0.iq.fu_full::MemRead              15803061      3.70%     98.60% # attempts to use FU when none available
system.cpu0.iq.fu_full::MemWrite              5975191      1.40%    100.00% # attempts to use FU when none available
system.cpu0.iq.fu_full::FloatMemRead                0      0.00%    100.00% # attempts to use FU when none available
system.cpu0.iq.fu_full::FloatMemWrite               0      0.00%    100.00% # attempts to use FU when none available
system.cpu0.iq.fu_full::IprAccess                   0      0.00%    100.00% # attempts to use FU when none available
system.cpu0.iq.fu_full::InstPrefetch                0      0.00%    100.00% # attempts to use FU when none available
system.cpu0.iq.FU_type_0::No_OpClass                0      0.00%      0.00% # Type of FU issued
system.cpu0.iq.FU_type_0::IntAlu            510926671     77.98%     77.98% # Type of FU issued
system.cpu0.iq.FU_type_0::IntMult             3744621      0.57%     78.56% # Type of FU issued
system.cpu0.iq.FU_type_0::IntDiv                    0      0.00%     78.56% # Type of FU issued
system.cpu0.iq.FU_type_0::FloatAdd                  0      0.00%     78.56% # Type of FU issued
system.cpu0.iq.FU_type_0::FloatCmp                  0      0.00%     78.56% # Type of FU issued
system.cpu0.iq.FU_type_0::FloatCvt                  0      0.00%     78.56% # Type of FU issued
system.cpu0.iq.FU_type_0::FloatMult                 0      0.00%     78.56% # Type of FU issued
system.cpu0.iq.FU_type_0::FloatMultAcc              0      0.00%     78.56% # Type of FU issued
system.cpu0.iq.FU_type_0::FloatDiv                  0      0.00%     78.56% # Type of FU issued
system.cpu0.iq.FU_type_0::FloatMisc                 0      0.00%     78.56% # Type of FU issued
system.cpu0.iq.FU_type_0::FloatSqrt                 0      0.00%     78.56% # Type of FU issued
system.cpu0.iq.FU_type_0::SimdAdd                   0      0.00%     78.56% # Type of FU issued
system.cpu0.iq.FU_type_0::SimdAddAcc                0      0.00%     78.56% # Type of FU issued
system.cpu0.iq.FU_type_0::SimdAlu                   0      0.00%     78.56% # Type of FU issued
system.cpu0.iq.FU_type_0::SimdCmp                   0      0.00%     78.56% # Type of FU issued
system.cpu0.iq.FU_type_0::SimdCvt                   0      0.00%     78.56% # Type of FU issued
system.cpu0.iq.FU_type_0::SimdMisc                  0      0.00%     78.56% # Type of FU issued
system.cpu0.iq.FU_type_0::SimdMult                  0      0.00%     78.56% # Type of FU issued
system.cpu0.iq.FU_type_0::SimdMultAcc               0      0.00%     78.56% # Type of FU issued
system.cpu0.iq.FU_type_0::SimdShift                 0      0.00%     78.56% # Type of FU issued
system.cpu0.iq.FU_type_0::SimdShiftAcc              0      0.00%     78.56% # Type of FU issued
system.cpu0.iq.FU_type_0::SimdSqrt                  0      0.00%     78.56% # Type of FU issued
system.cpu0.iq.FU_type_0::SimdFloatAdd              0      0.00%     78.56% # Type of FU issued
system.cpu0.iq.FU_type_0::SimdFloatAlu              0      0.00%     78.56% # Type of FU issued
system.cpu0.iq.FU_type_0::SimdFloatCmp              0      0.00%     78.56% # Type of FU issued
system.cpu0.iq.FU_type_0::SimdFloatCvt              0      0.00%     78.56% # Type of FU issued
system.cpu0.iq.FU_type_0::SimdFloatDiv              0      0.00%     78.56% # Type of FU issued
system.cpu0.iq.FU_type_0::SimdFloatMisc         47348      0.01%     78.56% # Type of FU issued
system.cpu0.iq.FU_type_0::SimdFloatMult             0      0.00%     78.56% # Type of FU issued
system.cpu0.iq.FU_type_0::SimdFloatMultAcc            0      0.00%     78.56% # Type of FU issued
system.cpu0.iq.FU_type_0::SimdFloatSqrt             0      0.00%     78.56% # Type of FU issued
system.cpu0.iq.FU_type_0::MemRead            88002351     13.43%     92.00% # Type of FU issued
system.cpu0.iq.FU_type_0::MemWrite           52442574      8.00%    100.00% # Type of FU issued
system.cpu0.iq.FU_type_0::FloatMemRead              0      0.00%    100.00% # Type of FU issued
system.cpu0.iq.FU_type_0::FloatMemWrite            16      0.00%    100.00% # Type of FU issued
system.cpu0.iq.FU_type_0::IprAccess                 0      0.00%    100.00% # Type of FU issued
system.cpu0.iq.FU_type_0::InstPrefetch              0      0.00%    100.00% # Type of FU issued
system.cpu0.iq.FU_type_0::total             655163581                       # Type of FU issued
system.cpu0.iq.rate                          1.200951                       # Inst issue rate
system.cpu0.iq.fu_busy_cnt                  427677659                       # FU busy when requested
system.cpu0.iq.fu_busy_rate                  0.652780                       # FU busy rate (busy events/executed inst)
system.cpu0.iq.int_inst_queue_reads        2293487272                       # Number of integer instruction queue reads
system.cpu0.iq.int_inst_queue_writes        815480704                       # Number of integer instruction queue writes
system.cpu0.iq.int_inst_queue_wakeup_accesses    652897920                       # Number of integer instruction queue wakeup accesses
system.cpu0.iq.fp_inst_queue_reads                 32                       # Number of floating instruction queue reads
system.cpu0.iq.fp_inst_queue_writes                16                       # Number of floating instruction queue writes
system.cpu0.iq.fp_inst_queue_wakeup_accesses           16                       # Number of floating instruction queue wakeup accesses
system.cpu0.iq.int_alu_accesses            1082841224                       # Number of integer alu accesses
system.cpu0.iq.fp_alu_accesses                     16                       # Number of floating point alu accesses
system.cpu0.iew.lsq.thread0.forwLoads        13526876                       # Number of loads that had data forwarded from stores
system.cpu0.iew.lsq.thread0.invAddrLoads            0                       # Number of loads ignored due to an invalid address
system.cpu0.iew.lsq.thread0.squashedLoads      6950850                       # Number of loads squashed
system.cpu0.iew.lsq.thread0.ignoredResponses         2425                       # Number of memory responses ignored because the instruction is squashed
system.cpu0.iew.lsq.thread0.memOrderViolation        10379                       # Number of memory ordering violations
system.cpu0.iew.lsq.thread0.squashedStores      4889242                       # Number of stores squashed
system.cpu0.iew.lsq.thread0.invAddrSwpfs            0                       # Number of software prefetches ignored due to an invalid address
system.cpu0.iew.lsq.thread0.blockedLoads            0                       # Number of blocked loads due to partial load-store forwarding
system.cpu0.iew.lsq.thread0.rescheduledLoads      1023673                       # Number of loads that were rescheduled
system.cpu0.iew.lsq.thread0.cacheBlocked         3781                       # Number of times an access to memory failed due to the cache being blocked
system.cpu0.iew.iewIdleCycles                       0                       # Number of cycles IEW is idle
system.cpu0.iew.iewSquashCycles               2604461                       # Number of cycles IEW is squashing
system.cpu0.iew.iewBlockCycles                9255100                       # Number of cycles IEW is blocking
system.cpu0.iew.iewUnblockCycles               119197                       # Number of cycles IEW is unblocking
system.cpu0.iew.iewDispatchedInsts          729189960                       # Number of instructions dispatched to IQ
system.cpu0.iew.iewDispSquashedInsts           494875                       # Number of squashed instructions skipped by dispatch
system.cpu0.iew.iewDispLoadInsts             90991071                       # Number of dispatched load instructions
system.cpu0.iew.iewDispStoreInsts            56173279                       # Number of dispatched store instructions
system.cpu0.iew.iewDispNonSpecInsts             49092                       # Number of dispatched non-speculative instructions
system.cpu0.iew.iewIQFullEvents                   191                       # Number of times the IQ has become full, causing a stall
system.cpu0.iew.iewLSQFullEvents                 2872                       # Number of times the LSQ has become full, causing a stall
system.cpu0.iew.memOrderViolationEvents         10379                       # Number of memory order violations
system.cpu0.iew.predictedTakenIncorrect       1371988                       # Number of branches that were predicted taken incorrectly
system.cpu0.iew.predictedNotTakenIncorrect      1374350                       # Number of branches that were predicted not taken incorrectly
system.cpu0.iew.branchMispredicts             2746338                       # Number of branch mispredicts detected at execute
system.cpu0.iew.iewExecutedInsts            654399038                       # Number of executed instructions
system.cpu0.iew.iewExecLoadInsts             87730217                       # Number of load instructions executed
system.cpu0.iew.iewExecSquashedInsts           764543                       # Number of squashed instructions skipped in execute
system.cpu0.iew.exec_swp                            0                       # number of swp insts executed
system.cpu0.iew.exec_nop                           94                       # number of nop insts executed
system.cpu0.iew.exec_refs                   140049963                       # number of memory reference insts executed
system.cpu0.iew.exec_branches                99712630                       # Number of branches executed
system.cpu0.iew.exec_stores                  52319746                       # Number of stores executed
system.cpu0.iew.exec_rate                    1.199550                       # Inst execution rate
system.cpu0.iew.wb_sent                     653015214                       # cumulative count of insts sent to commit
system.cpu0.iew.wb_count                    652897936                       # cumulative count of insts written-back
system.cpu0.iew.wb_producers                488967142                       # num instructions producing a value
system.cpu0.iew.wb_consumers               1168474230                       # num instructions consuming a value
system.cpu0.iew.wb_rate                      1.196798                       # insts written-back per cycle
system.cpu0.iew.wb_fanout                    0.418466                       # average fanout of values written-back
system.cpu0.commit.commitSquashedInsts       86281422                       # The number of squashed insts skipped by commit
system.cpu0.commit.commitNonSpecStalls         105630                       # The number of times commit has been forced to stall to communicate backwards
system.cpu0.commit.branchMispredicts          2584889                       # The number of times a branch was mispredicted
system.cpu0.commit.committed_per_cycle::samples    533636414                       # Number of insts commited each cycle
system.cpu0.commit.committed_per_cycle::mean     1.204770                       # Number of insts commited each cycle
system.cpu0.commit.committed_per_cycle::stdev     1.041509                       # Number of insts commited each cycle
system.cpu0.commit.committed_per_cycle::underflows            0      0.00%      0.00% # Number of insts commited each cycle
system.cpu0.commit.committed_per_cycle::0     55078594     10.32%     10.32% # Number of insts commited each cycle
system.cpu0.commit.committed_per_cycle::1    396732382     74.35%     84.67% # Number of insts commited each cycle
system.cpu0.commit.committed_per_cycle::2     48905366      9.16%     93.83% # Number of insts commited each cycle
system.cpu0.commit.committed_per_cycle::3     14444894      2.71%     96.54% # Number of insts commited each cycle
system.cpu0.commit.committed_per_cycle::4      6277059      1.18%     97.71% # Number of insts commited each cycle
system.cpu0.commit.committed_per_cycle::5      1263126      0.24%     97.95% # Number of insts commited each cycle
system.cpu0.commit.committed_per_cycle::6      3645474      0.68%     98.63% # Number of insts commited each cycle
system.cpu0.commit.committed_per_cycle::7      6581317      1.23%     99.87% # Number of insts commited each cycle
system.cpu0.commit.committed_per_cycle::8       708202      0.13%    100.00% # Number of insts commited each cycle
system.cpu0.commit.committed_per_cycle::overflows            0      0.00%    100.00% # Number of insts commited each cycle
system.cpu0.commit.committed_per_cycle::min_value            0                       # Number of insts commited each cycle
system.cpu0.commit.committed_per_cycle::max_value            8                       # Number of insts commited each cycle
system.cpu0.commit.committed_per_cycle::total    533636414                       # Number of insts commited each cycle
system.cpu0.commit.committedInsts           568667623                       # Number of instructions committed
system.cpu0.commit.committedOps             642909341                       # Number of ops (including micro ops) committed
system.cpu0.commit.swp_count                        0                       # Number of s/w prefetches committed
system.cpu0.commit.refs                     135324258                       # Number of memory references committed
system.cpu0.commit.loads                     84040221                       # Number of loads committed
system.cpu0.commit.membars                      57488                       # Number of memory barriers committed
system.cpu0.commit.branches                  98708087                       # Number of branches committed
system.cpu0.commit.fp_insts                        16                       # Number of committed floating point instructions.
system.cpu0.commit.int_insts                587305356                       # Number of committed integer instructions.
system.cpu0.commit.function_calls            18093734                       # Number of function calls committed.
system.cpu0.commit.op_class_0::No_OpClass            0      0.00%      0.00% # Class of committed instruction
system.cpu0.commit.op_class_0::IntAlu       503928746     78.38%     78.38% # Class of committed instruction
system.cpu0.commit.op_class_0::IntMult        3608989      0.56%     78.94% # Class of committed instruction
system.cpu0.commit.op_class_0::IntDiv               0      0.00%     78.94% # Class of committed instruction
system.cpu0.commit.op_class_0::FloatAdd             0      0.00%     78.94% # Class of committed instruction
system.cpu0.commit.op_class_0::FloatCmp             0      0.00%     78.94% # Class of committed instruction
system.cpu0.commit.op_class_0::FloatCvt             0      0.00%     78.94% # Class of committed instruction
system.cpu0.commit.op_class_0::FloatMult            0      0.00%     78.94% # Class of committed instruction
system.cpu0.commit.op_class_0::FloatMultAcc            0      0.00%     78.94% # Class of committed instruction
system.cpu0.commit.op_class_0::FloatDiv             0      0.00%     78.94% # Class of committed instruction
system.cpu0.commit.op_class_0::FloatMisc            0      0.00%     78.94% # Class of committed instruction
system.cpu0.commit.op_class_0::FloatSqrt            0      0.00%     78.94% # Class of committed instruction
system.cpu0.commit.op_class_0::SimdAdd              0      0.00%     78.94% # Class of committed instruction
system.cpu0.commit.op_class_0::SimdAddAcc            0      0.00%     78.94% # Class of committed instruction
system.cpu0.commit.op_class_0::SimdAlu              0      0.00%     78.94% # Class of committed instruction
system.cpu0.commit.op_class_0::SimdCmp              0      0.00%     78.94% # Class of committed instruction
system.cpu0.commit.op_class_0::SimdCvt              0      0.00%     78.94% # Class of committed instruction
system.cpu0.commit.op_class_0::SimdMisc             0      0.00%     78.94% # Class of committed instruction
system.cpu0.commit.op_class_0::SimdMult             0      0.00%     78.94% # Class of committed instruction
system.cpu0.commit.op_class_0::SimdMultAcc            0      0.00%     78.94% # Class of committed instruction
system.cpu0.commit.op_class_0::SimdShift            0      0.00%     78.94% # Class of committed instruction
system.cpu0.commit.op_class_0::SimdShiftAcc            0      0.00%     78.94% # Class of committed instruction
system.cpu0.commit.op_class_0::SimdSqrt             0      0.00%     78.94% # Class of committed instruction
system.cpu0.commit.op_class_0::SimdFloatAdd            0      0.00%     78.94% # Class of committed instruction
system.cpu0.commit.op_class_0::SimdFloatAlu            0      0.00%     78.94% # Class of committed instruction
system.cpu0.commit.op_class_0::SimdFloatCmp            0      0.00%     78.94% # Class of committed instruction
system.cpu0.commit.op_class_0::SimdFloatCvt            0      0.00%     78.94% # Class of committed instruction
system.cpu0.commit.op_class_0::SimdFloatDiv            0      0.00%     78.94% # Class of committed instruction
system.cpu0.commit.op_class_0::SimdFloatMisc        47348      0.01%     78.95% # Class of committed instruction
system.cpu0.commit.op_class_0::SimdFloatMult            0      0.00%     78.95% # Class of committed instruction
system.cpu0.commit.op_class_0::SimdFloatMultAcc            0      0.00%     78.95% # Class of committed instruction
system.cpu0.commit.op_class_0::SimdFloatSqrt            0      0.00%     78.95% # Class of committed instruction
system.cpu0.commit.op_class_0::MemRead       84040221     13.07%     92.02% # Class of committed instruction
system.cpu0.commit.op_class_0::MemWrite      51284021      7.98%    100.00% # Class of committed instruction
system.cpu0.commit.op_class_0::FloatMemRead            0      0.00%    100.00% # Class of committed instruction
system.cpu0.commit.op_class_0::FloatMemWrite           16      0.00%    100.00% # Class of committed instruction
system.cpu0.commit.op_class_0::IprAccess            0      0.00%    100.00% # Class of committed instruction
system.cpu0.commit.op_class_0::InstPrefetch            0      0.00%    100.00% # Class of committed instruction
system.cpu0.commit.op_class_0::total        642909341                       # Class of committed instruction
system.cpu0.commit.bw_lim_events               708202                       # number cycles where commit BW limit reached
system.cpu0.rob.rob_reads                  1261990918                       # The number of ROB reads
system.cpu0.rob.rob_writes                 1470231673                       # The number of ROB writes
system.cpu0.timesIdled                           2915                       # Number of times that the entire CPU went into an idle state and unscheduled itself
system.cpu0.idleCycles                          51546                       # Total number of cycles that the CPU has spent unscheduled due to idling
system.cpu0.committedInsts                  568667623                       # Number of Instructions Simulated
system.cpu0.committedOps                    642909341                       # Number of Ops (including micro ops) Simulated
system.cpu0.cpi                              0.959325                       # CPI: Cycles Per Instruction
system.cpu0.cpi_total                        0.959325                       # CPI: Total CPI of All Threads
system.cpu0.ipc                              1.042399                       # IPC: Instructions Per Cycle
system.cpu0.ipc_total                        1.042399                       # IPC: Total IPC of All Threads
system.cpu0.int_regfile_reads               776117287                       # number of integer regfile reads
system.cpu0.int_regfile_writes              467451700                       # number of integer regfile writes
system.cpu0.fp_regfile_reads                       16                       # number of floating regfile reads
system.cpu0.cc_regfile_reads               2248666595                       # number of cc regfile reads
system.cpu0.cc_regfile_writes               336568114                       # number of cc regfile writes
system.cpu0.misc_regfile_reads              137547562                       # number of misc regfile reads
system.cpu0.misc_regfile_writes                 76545                       # number of misc regfile writes
system.cpu0.dcache.tags.pwrStateResidencyTicks::UNDEFINED 545537231000                       # Cumulative time (in ticks) in various power states
system.cpu0.dcache.tags.replacements             9195                       # number of replacements
system.cpu0.dcache.tags.tagsinuse          510.153673                       # Cycle average of tags in use
system.cpu0.dcache.tags.total_refs          121559173                       # Total number of references to valid blocks.
system.cpu0.dcache.tags.sampled_refs             9707                       # Sample count of references to valid blocks.
system.cpu0.dcache.tags.avg_refs         12522.836407                       # Average number of references to valid blocks.
system.cpu0.dcache.tags.warmup_cycle      15701444500                       # Cycle when the warmup percentage was hit.
system.cpu0.dcache.tags.occ_blocks::cpu0.data   510.153673                       # Average occupied blocks per requestor
system.cpu0.dcache.tags.occ_percent::cpu0.data     0.996394                       # Average percentage of cache occupancy
system.cpu0.dcache.tags.occ_percent::total     0.996394                       # Average percentage of cache occupancy
system.cpu0.dcache.tags.occ_task_id_blocks::1024          512                       # Occupied blocks per task id
system.cpu0.dcache.tags.age_task_id_blocks_1024::0           26                       # Occupied blocks per task id
system.cpu0.dcache.tags.age_task_id_blocks_1024::1           31                       # Occupied blocks per task id
system.cpu0.dcache.tags.age_task_id_blocks_1024::2           59                       # Occupied blocks per task id
system.cpu0.dcache.tags.age_task_id_blocks_1024::3          134                       # Occupied blocks per task id
system.cpu0.dcache.tags.age_task_id_blocks_1024::4          262                       # Occupied blocks per task id
system.cpu0.dcache.tags.occ_task_id_percent::1024            1                       # Percentage of cache occupancy per task id
system.cpu0.dcache.tags.tag_accesses        486321391                       # Number of tag accesses
system.cpu0.dcache.tags.data_accesses       486321391                       # Number of data accesses
system.cpu0.dcache.pwrStateResidencyTicks::UNDEFINED 545537231000                       # Cumulative time (in ticks) in various power states
system.cpu0.dcache.ReadReq_hits::cpu0.data     70410169                       # number of ReadReq hits
system.cpu0.dcache.ReadReq_hits::total       70410169                       # number of ReadReq hits
system.cpu0.dcache.WriteReq_hits::cpu0.data     51072500                       # number of WriteReq hits
system.cpu0.dcache.WriteReq_hits::total      51072500                       # number of WriteReq hits
system.cpu0.dcache.LoadLockedReq_hits::cpu0.data        38255                       # number of LoadLockedReq hits
system.cpu0.dcache.LoadLockedReq_hits::total        38255                       # number of LoadLockedReq hits
system.cpu0.dcache.StoreCondReq_hits::cpu0.data        38249                       # number of StoreCondReq hits
system.cpu0.dcache.StoreCondReq_hits::total        38249                       # number of StoreCondReq hits
system.cpu0.dcache.demand_hits::cpu0.data    121482669                       # number of demand (read+write) hits
system.cpu0.dcache.demand_hits::total       121482669                       # number of demand (read+write) hits
system.cpu0.dcache.overall_hits::cpu0.data    121482669                       # number of overall hits
system.cpu0.dcache.overall_hits::total      121482669                       # number of overall hits
system.cpu0.dcache.ReadReq_misses::cpu0.data         7664                       # number of ReadReq misses
system.cpu0.dcache.ReadReq_misses::total         7664                       # number of ReadReq misses
system.cpu0.dcache.WriteReq_misses::cpu0.data        11053                       # number of WriteReq misses
system.cpu0.dcache.WriteReq_misses::total        11053                       # number of WriteReq misses
system.cpu0.dcache.LoadLockedReq_misses::cpu0.data           31                       # number of LoadLockedReq misses
system.cpu0.dcache.LoadLockedReq_misses::total           31                       # number of LoadLockedReq misses
system.cpu0.dcache.demand_misses::cpu0.data        18717                       # number of demand (read+write) misses
system.cpu0.dcache.demand_misses::total         18717                       # number of demand (read+write) misses
system.cpu0.dcache.overall_misses::cpu0.data        18717                       # number of overall misses
system.cpu0.dcache.overall_misses::total        18717                       # number of overall misses
system.cpu0.dcache.ReadReq_miss_latency::cpu0.data    206938000                       # number of ReadReq miss cycles
system.cpu0.dcache.ReadReq_miss_latency::total    206938000                       # number of ReadReq miss cycles
system.cpu0.dcache.WriteReq_miss_latency::cpu0.data    527738093                       # number of WriteReq miss cycles
system.cpu0.dcache.WriteReq_miss_latency::total    527738093                       # number of WriteReq miss cycles
system.cpu0.dcache.LoadLockedReq_miss_latency::cpu0.data       714000                       # number of LoadLockedReq miss cycles
system.cpu0.dcache.LoadLockedReq_miss_latency::total       714000                       # number of LoadLockedReq miss cycles
system.cpu0.dcache.demand_miss_latency::cpu0.data    734676093                       # number of demand (read+write) miss cycles
system.cpu0.dcache.demand_miss_latency::total    734676093                       # number of demand (read+write) miss cycles
system.cpu0.dcache.overall_miss_latency::cpu0.data    734676093                       # number of overall miss cycles
system.cpu0.dcache.overall_miss_latency::total    734676093                       # number of overall miss cycles
system.cpu0.dcache.ReadReq_accesses::cpu0.data     70417833                       # number of ReadReq accesses(hits+misses)
system.cpu0.dcache.ReadReq_accesses::total     70417833                       # number of ReadReq accesses(hits+misses)
system.cpu0.dcache.WriteReq_accesses::cpu0.data     51083553                       # number of WriteReq accesses(hits+misses)
system.cpu0.dcache.WriteReq_accesses::total     51083553                       # number of WriteReq accesses(hits+misses)
system.cpu0.dcache.LoadLockedReq_accesses::cpu0.data        38286                       # number of LoadLockedReq accesses(hits+misses)
system.cpu0.dcache.LoadLockedReq_accesses::total        38286                       # number of LoadLockedReq accesses(hits+misses)
system.cpu0.dcache.StoreCondReq_accesses::cpu0.data        38249                       # number of StoreCondReq accesses(hits+misses)
system.cpu0.dcache.StoreCondReq_accesses::total        38249                       # number of StoreCondReq accesses(hits+misses)
system.cpu0.dcache.demand_accesses::cpu0.data    121501386                       # number of demand (read+write) accesses
system.cpu0.dcache.demand_accesses::total    121501386                       # number of demand (read+write) accesses
system.cpu0.dcache.overall_accesses::cpu0.data    121501386                       # number of overall (read+write) accesses
system.cpu0.dcache.overall_accesses::total    121501386                       # number of overall (read+write) accesses
system.cpu0.dcache.ReadReq_miss_rate::cpu0.data     0.000109                       # miss rate for ReadReq accesses
system.cpu0.dcache.ReadReq_miss_rate::total     0.000109                       # miss rate for ReadReq accesses
system.cpu0.dcache.WriteReq_miss_rate::cpu0.data     0.000216                       # miss rate for WriteReq accesses
system.cpu0.dcache.WriteReq_miss_rate::total     0.000216                       # miss rate for WriteReq accesses
system.cpu0.dcache.LoadLockedReq_miss_rate::cpu0.data     0.000810                       # miss rate for LoadLockedReq accesses
system.cpu0.dcache.LoadLockedReq_miss_rate::total     0.000810                       # miss rate for LoadLockedReq accesses
system.cpu0.dcache.demand_miss_rate::cpu0.data     0.000154                       # miss rate for demand accesses
system.cpu0.dcache.demand_miss_rate::total     0.000154                       # miss rate for demand accesses
system.cpu0.dcache.overall_miss_rate::cpu0.data     0.000154                       # miss rate for overall accesses
system.cpu0.dcache.overall_miss_rate::total     0.000154                       # miss rate for overall accesses
system.cpu0.dcache.ReadReq_avg_miss_latency::cpu0.data 27001.304802                       # average ReadReq miss latency
system.cpu0.dcache.ReadReq_avg_miss_latency::total 27001.304802                       # average ReadReq miss latency
system.cpu0.dcache.WriteReq_avg_miss_latency::cpu0.data 47746.140686                       # average WriteReq miss latency
system.cpu0.dcache.WriteReq_avg_miss_latency::total 47746.140686                       # average WriteReq miss latency
system.cpu0.dcache.LoadLockedReq_avg_miss_latency::cpu0.data 23032.258065                       # average LoadLockedReq miss latency
system.cpu0.dcache.LoadLockedReq_avg_miss_latency::total 23032.258065                       # average LoadLockedReq miss latency
system.cpu0.dcache.demand_avg_miss_latency::cpu0.data 39251.808142                       # average overall miss latency
system.cpu0.dcache.demand_avg_miss_latency::total 39251.808142                       # average overall miss latency
system.cpu0.dcache.overall_avg_miss_latency::cpu0.data 39251.808142                       # average overall miss latency
system.cpu0.dcache.overall_avg_miss_latency::total 39251.808142                       # average overall miss latency
system.cpu0.dcache.blocked_cycles::no_mshrs        16105                       # number of cycles access was blocked
system.cpu0.dcache.blocked_cycles::no_targets            0                       # number of cycles access was blocked
system.cpu0.dcache.blocked::no_mshrs              791                       # number of cycles access was blocked
system.cpu0.dcache.blocked::no_targets              0                       # number of cycles access was blocked
system.cpu0.dcache.avg_blocked_cycles::no_mshrs    20.360303                       # average number of cycles each access was blocked
system.cpu0.dcache.avg_blocked_cycles::no_targets          nan                       # average number of cycles each access was blocked
system.cpu0.dcache.writebacks::writebacks         6221                       # number of writebacks
system.cpu0.dcache.writebacks::total             6221                       # number of writebacks
system.cpu0.dcache.ReadReq_mshr_hits::cpu0.data         3627                       # number of ReadReq MSHR hits
system.cpu0.dcache.ReadReq_mshr_hits::total         3627                       # number of ReadReq MSHR hits
system.cpu0.dcache.WriteReq_mshr_hits::cpu0.data         5386                       # number of WriteReq MSHR hits
system.cpu0.dcache.WriteReq_mshr_hits::total         5386                       # number of WriteReq MSHR hits
system.cpu0.dcache.LoadLockedReq_mshr_hits::cpu0.data           28                       # number of LoadLockedReq MSHR hits
system.cpu0.dcache.LoadLockedReq_mshr_hits::total           28                       # number of LoadLockedReq MSHR hits
system.cpu0.dcache.demand_mshr_hits::cpu0.data         9013                       # number of demand (read+write) MSHR hits
system.cpu0.dcache.demand_mshr_hits::total         9013                       # number of demand (read+write) MSHR hits
system.cpu0.dcache.overall_mshr_hits::cpu0.data         9013                       # number of overall MSHR hits
system.cpu0.dcache.overall_mshr_hits::total         9013                       # number of overall MSHR hits
system.cpu0.dcache.ReadReq_mshr_misses::cpu0.data         4037                       # number of ReadReq MSHR misses
system.cpu0.dcache.ReadReq_mshr_misses::total         4037                       # number of ReadReq MSHR misses
system.cpu0.dcache.WriteReq_mshr_misses::cpu0.data         5667                       # number of WriteReq MSHR misses
system.cpu0.dcache.WriteReq_mshr_misses::total         5667                       # number of WriteReq MSHR misses
system.cpu0.dcache.LoadLockedReq_mshr_misses::cpu0.data            3                       # number of LoadLockedReq MSHR misses
system.cpu0.dcache.LoadLockedReq_mshr_misses::total            3                       # number of LoadLockedReq MSHR misses
system.cpu0.dcache.demand_mshr_misses::cpu0.data         9704                       # number of demand (read+write) MSHR misses
system.cpu0.dcache.demand_mshr_misses::total         9704                       # number of demand (read+write) MSHR misses
system.cpu0.dcache.overall_mshr_misses::cpu0.data         9704                       # number of overall MSHR misses
system.cpu0.dcache.overall_mshr_misses::total         9704                       # number of overall MSHR misses
system.cpu0.dcache.ReadReq_mshr_miss_latency::cpu0.data     96348500                       # number of ReadReq MSHR miss cycles
system.cpu0.dcache.ReadReq_mshr_miss_latency::total     96348500                       # number of ReadReq MSHR miss cycles
system.cpu0.dcache.WriteReq_mshr_miss_latency::cpu0.data    258976772                       # number of WriteReq MSHR miss cycles
system.cpu0.dcache.WriteReq_mshr_miss_latency::total    258976772                       # number of WriteReq MSHR miss cycles
system.cpu0.dcache.LoadLockedReq_mshr_miss_latency::cpu0.data       141000                       # number of LoadLockedReq MSHR miss cycles
system.cpu0.dcache.LoadLockedReq_mshr_miss_latency::total       141000                       # number of LoadLockedReq MSHR miss cycles
system.cpu0.dcache.demand_mshr_miss_latency::cpu0.data    355325272                       # number of demand (read+write) MSHR miss cycles
system.cpu0.dcache.demand_mshr_miss_latency::total    355325272                       # number of demand (read+write) MSHR miss cycles
system.cpu0.dcache.overall_mshr_miss_latency::cpu0.data    355325272                       # number of overall MSHR miss cycles
system.cpu0.dcache.overall_mshr_miss_latency::total    355325272                       # number of overall MSHR miss cycles
system.cpu0.dcache.ReadReq_mshr_miss_rate::cpu0.data     0.000057                       # mshr miss rate for ReadReq accesses
system.cpu0.dcache.ReadReq_mshr_miss_rate::total     0.000057                       # mshr miss rate for ReadReq accesses
system.cpu0.dcache.WriteReq_mshr_miss_rate::cpu0.data     0.000111                       # mshr miss rate for WriteReq accesses
system.cpu0.dcache.WriteReq_mshr_miss_rate::total     0.000111                       # mshr miss rate for WriteReq accesses
system.cpu0.dcache.LoadLockedReq_mshr_miss_rate::cpu0.data     0.000078                       # mshr miss rate for LoadLockedReq accesses
system.cpu0.dcache.LoadLockedReq_mshr_miss_rate::total     0.000078                       # mshr miss rate for LoadLockedReq accesses
system.cpu0.dcache.demand_mshr_miss_rate::cpu0.data     0.000080                       # mshr miss rate for demand accesses
system.cpu0.dcache.demand_mshr_miss_rate::total     0.000080                       # mshr miss rate for demand accesses
system.cpu0.dcache.overall_mshr_miss_rate::cpu0.data     0.000080                       # mshr miss rate for overall accesses
system.cpu0.dcache.overall_mshr_miss_rate::total     0.000080                       # mshr miss rate for overall accesses
system.cpu0.dcache.ReadReq_avg_mshr_miss_latency::cpu0.data 23866.361159                       # average ReadReq mshr miss latency
system.cpu0.dcache.ReadReq_avg_mshr_miss_latency::total 23866.361159                       # average ReadReq mshr miss latency
system.cpu0.dcache.WriteReq_avg_mshr_miss_latency::cpu0.data 45699.095112                       # average WriteReq mshr miss latency
system.cpu0.dcache.WriteReq_avg_mshr_miss_latency::total 45699.095112                       # average WriteReq mshr miss latency
system.cpu0.dcache.LoadLockedReq_avg_mshr_miss_latency::cpu0.data        47000                       # average LoadLockedReq mshr miss latency
system.cpu0.dcache.LoadLockedReq_avg_mshr_miss_latency::total        47000                       # average LoadLockedReq mshr miss latency
system.cpu0.dcache.demand_avg_mshr_miss_latency::cpu0.data 36616.371805                       # average overall mshr miss latency
system.cpu0.dcache.demand_avg_mshr_miss_latency::total 36616.371805                       # average overall mshr miss latency
system.cpu0.dcache.overall_avg_mshr_miss_latency::cpu0.data 36616.371805                       # average overall mshr miss latency
system.cpu0.dcache.overall_avg_mshr_miss_latency::total 36616.371805                       # average overall mshr miss latency
system.cpu0.icache.tags.pwrStateResidencyTicks::UNDEFINED 545537231000                       # Cumulative time (in ticks) in various power states
system.cpu0.icache.tags.replacements            84804                       # number of replacements
system.cpu0.icache.tags.tagsinuse          511.753992                       # Cycle average of tags in use
system.cpu0.icache.tags.total_refs           93567361                       # Total number of references to valid blocks.
system.cpu0.icache.tags.sampled_refs            85316                       # Sample count of references to valid blocks.
system.cpu0.icache.tags.avg_refs          1096.715282                       # Average number of references to valid blocks.
system.cpu0.icache.tags.warmup_cycle      15578869500                       # Cycle when the warmup percentage was hit.
system.cpu0.icache.tags.occ_blocks::cpu0.inst   511.753992                       # Average occupied blocks per requestor
system.cpu0.icache.tags.occ_percent::cpu0.inst     0.999520                       # Average percentage of cache occupancy
system.cpu0.icache.tags.occ_percent::total     0.999520                       # Average percentage of cache occupancy
system.cpu0.icache.tags.occ_task_id_blocks::1024          512                       # Occupied blocks per task id
system.cpu0.icache.tags.age_task_id_blocks_1024::0           67                       # Occupied blocks per task id
system.cpu0.icache.tags.age_task_id_blocks_1024::1          201                       # Occupied blocks per task id
system.cpu0.icache.tags.age_task_id_blocks_1024::2           88                       # Occupied blocks per task id
system.cpu0.icache.tags.age_task_id_blocks_1024::3           63                       # Occupied blocks per task id
system.cpu0.icache.tags.age_task_id_blocks_1024::4           93                       # Occupied blocks per task id
system.cpu0.icache.tags.occ_task_id_percent::1024            1                       # Percentage of cache occupancy per task id
system.cpu0.icache.tags.tag_accesses        374702260                       # Number of tag accesses
system.cpu0.icache.tags.data_accesses       374702260                       # Number of data accesses
system.cpu0.icache.pwrStateResidencyTicks::UNDEFINED 545537231000                       # Cumulative time (in ticks) in various power states
system.cpu0.icache.ReadReq_hits::cpu0.inst     93567361                       # number of ReadReq hits
system.cpu0.icache.ReadReq_hits::total       93567361                       # number of ReadReq hits
system.cpu0.icache.demand_hits::cpu0.inst     93567361                       # number of demand (read+write) hits
system.cpu0.icache.demand_hits::total        93567361                       # number of demand (read+write) hits
system.cpu0.icache.overall_hits::cpu0.inst     93567361                       # number of overall hits
system.cpu0.icache.overall_hits::total       93567361                       # number of overall hits
system.cpu0.icache.ReadReq_misses::cpu0.inst        86875                       # number of ReadReq misses
system.cpu0.icache.ReadReq_misses::total        86875                       # number of ReadReq misses
system.cpu0.icache.demand_misses::cpu0.inst        86875                       # number of demand (read+write) misses
system.cpu0.icache.demand_misses::total         86875                       # number of demand (read+write) misses
system.cpu0.icache.overall_misses::cpu0.inst        86875                       # number of overall misses
system.cpu0.icache.overall_misses::total        86875                       # number of overall misses
system.cpu0.icache.ReadReq_miss_latency::cpu0.inst   1400847000                       # number of ReadReq miss cycles
system.cpu0.icache.ReadReq_miss_latency::total   1400847000                       # number of ReadReq miss cycles
system.cpu0.icache.demand_miss_latency::cpu0.inst   1400847000                       # number of demand (read+write) miss cycles
system.cpu0.icache.demand_miss_latency::total   1400847000                       # number of demand (read+write) miss cycles
system.cpu0.icache.overall_miss_latency::cpu0.inst   1400847000                       # number of overall miss cycles
system.cpu0.icache.overall_miss_latency::total   1400847000                       # number of overall miss cycles
system.cpu0.icache.ReadReq_accesses::cpu0.inst     93654236                       # number of ReadReq accesses(hits+misses)
system.cpu0.icache.ReadReq_accesses::total     93654236                       # number of ReadReq accesses(hits+misses)
system.cpu0.icache.demand_accesses::cpu0.inst     93654236                       # number of demand (read+write) accesses
system.cpu0.icache.demand_accesses::total     93654236                       # number of demand (read+write) accesses
system.cpu0.icache.overall_accesses::cpu0.inst     93654236                       # number of overall (read+write) accesses
system.cpu0.icache.overall_accesses::total     93654236                       # number of overall (read+write) accesses
system.cpu0.icache.ReadReq_miss_rate::cpu0.inst     0.000928                       # miss rate for ReadReq accesses
system.cpu0.icache.ReadReq_miss_rate::total     0.000928                       # miss rate for ReadReq accesses
system.cpu0.icache.demand_miss_rate::cpu0.inst     0.000928                       # miss rate for demand accesses
system.cpu0.icache.demand_miss_rate::total     0.000928                       # miss rate for demand accesses
system.cpu0.icache.overall_miss_rate::cpu0.inst     0.000928                       # miss rate for overall accesses
system.cpu0.icache.overall_miss_rate::total     0.000928                       # miss rate for overall accesses
system.cpu0.icache.ReadReq_avg_miss_latency::cpu0.inst 16124.857554                       # average ReadReq miss latency
system.cpu0.icache.ReadReq_avg_miss_latency::total 16124.857554                       # average ReadReq miss latency
system.cpu0.icache.demand_avg_miss_latency::cpu0.inst 16124.857554                       # average overall miss latency
system.cpu0.icache.demand_avg_miss_latency::total 16124.857554                       # average overall miss latency
system.cpu0.icache.overall_avg_miss_latency::cpu0.inst 16124.857554                       # average overall miss latency
system.cpu0.icache.overall_avg_miss_latency::total 16124.857554                       # average overall miss latency
system.cpu0.icache.blocked_cycles::no_mshrs           83                       # number of cycles access was blocked
system.cpu0.icache.blocked_cycles::no_targets            0                       # number of cycles access was blocked
system.cpu0.icache.blocked::no_mshrs                5                       # number of cycles access was blocked
system.cpu0.icache.blocked::no_targets              0                       # number of cycles access was blocked
system.cpu0.icache.avg_blocked_cycles::no_mshrs    16.600000                       # average number of cycles each access was blocked
system.cpu0.icache.avg_blocked_cycles::no_targets          nan                       # average number of cycles each access was blocked
system.cpu0.icache.writebacks::writebacks        84804                       # number of writebacks
system.cpu0.icache.writebacks::total            84804                       # number of writebacks
system.cpu0.icache.ReadReq_mshr_hits::cpu0.inst         1559                       # number of ReadReq MSHR hits
system.cpu0.icache.ReadReq_mshr_hits::total         1559                       # number of ReadReq MSHR hits
system.cpu0.icache.demand_mshr_hits::cpu0.inst         1559                       # number of demand (read+write) MSHR hits
system.cpu0.icache.demand_mshr_hits::total         1559                       # number of demand (read+write) MSHR hits
system.cpu0.icache.overall_mshr_hits::cpu0.inst         1559                       # number of overall MSHR hits
system.cpu0.icache.overall_mshr_hits::total         1559                       # number of overall MSHR hits
system.cpu0.icache.ReadReq_mshr_misses::cpu0.inst        85316                       # number of ReadReq MSHR misses
system.cpu0.icache.ReadReq_mshr_misses::total        85316                       # number of ReadReq MSHR misses
system.cpu0.icache.demand_mshr_misses::cpu0.inst        85316                       # number of demand (read+write) MSHR misses
[...]
system.l2.ReadExReq_avg_miss_latency::cpu0.data 61639.188070                       # average ReadExReq miss latency
system.l2.ReadExReq_avg_miss_latency::total 61639.188070                       # average ReadExReq miss latency
system.l2.ReadCleanReq_avg_miss_latency::cpu0.inst 61190.010858                       # average ReadCleanReq miss latency
system.l2.ReadCleanReq_avg_miss_latency::total 61190.010858                       # average ReadCleanReq miss latency
system.l2.ReadSharedReq_avg_miss_latency::cpu0.data 61263.188746                       # average ReadSharedReq miss latency
system.l2.ReadSharedReq_avg_miss_latency::total 61263.188746                       # average ReadSharedReq miss latency
system.l2.demand_avg_miss_latency::cpu0.inst 61190.010858                       # average overall miss latency
system.l2.demand_avg_miss_latency::cpu0.data 61567.501118                       # average overall miss latency
system.l2.demand_avg_miss_latency::total 61457.409753                       # average overall miss latency
system.l2.overall_avg_miss_latency::cpu0.inst 61190.010858                       # average overall miss latency
system.l2.overall_avg_miss_latency::cpu0.data 61567.501118                       # average overall miss latency
system.l2.overall_avg_miss_latency::total 61457.409753                       # average overall miss latency
system.l2.blocked_cycles::no_mshrs                  0                       # number of cycles access was blocked
system.l2.blocked_cycles::no_targets                0                       # number of cycles access was blocked
system.l2.blocked::no_mshrs                         0                       # number of cycles access was blocked
system.l2.blocked::no_targets                       0                       # number of cycles access was blocked
system.l2.avg_blocked_cycles::no_mshrs            nan                       # average number of cycles each access was blocked
system.l2.avg_blocked_cycles::no_targets          nan                       # average number of cycles each access was blocked
system.l2.writebacks::writebacks                 1114                       # number of writebacks
system.l2.writebacks::total                      1114                       # number of writebacks
system.l2.ReadCleanReq_mshr_hits::cpu0.inst            5                       # number of ReadCleanReq MSHR hits
system.l2.ReadCleanReq_mshr_hits::total             5                       # number of ReadCleanReq MSHR hits
system.l2.ReadSharedReq_mshr_hits::cpu0.data           21                       # number of ReadSharedReq MSHR hits
system.l2.ReadSharedReq_mshr_hits::total           21                       # number of ReadSharedReq MSHR hits
system.l2.demand_mshr_hits::cpu0.inst               5                       # number of demand (read+write) MSHR hits
system.l2.demand_mshr_hits::cpu0.data              21                       # number of demand (read+write) MSHR hits
system.l2.demand_mshr_hits::total                  26                       # number of demand (read+write) MSHR hits
system.l2.overall_mshr_hits::cpu0.inst              5                       # number of overall MSHR hits
system.l2.overall_mshr_hits::cpu0.data             21                       # number of overall MSHR hits
system.l2.overall_mshr_hits::total                 26                       # number of overall MSHR hits
system.l2.CleanEvict_mshr_misses::writebacks            5                       # number of CleanEvict MSHR misses
system.l2.CleanEvict_mshr_misses::total             5                       # number of CleanEvict MSHR misses
system.l2.ReadExReq_mshr_misses::cpu0.data         3621                       # number of ReadExReq MSHR misses
system.l2.ReadExReq_mshr_misses::total           3621                       # number of ReadExReq MSHR misses
system.l2.ReadCleanReq_mshr_misses::cpu0.inst         1837                       # number of ReadCleanReq MSHR misses
system.l2.ReadCleanReq_mshr_misses::total         1837                       # number of ReadCleanReq MSHR misses
system.l2.ReadSharedReq_mshr_misses::cpu0.data          832                       # number of ReadSharedReq MSHR misses
system.l2.ReadSharedReq_mshr_misses::total          832                       # number of ReadSharedReq MSHR misses
system.l2.demand_mshr_misses::cpu0.inst          1837                       # number of demand (read+write) MSHR misses
system.l2.demand_mshr_misses::cpu0.data          4453                       # number of demand (read+write) MSHR misses
system.l2.demand_mshr_misses::total              6290                       # number of demand (read+write) MSHR misses
system.l2.overall_mshr_misses::cpu0.inst         1837                       # number of overall MSHR misses
system.l2.overall_mshr_misses::cpu0.data         4453                       # number of overall MSHR misses
system.l2.overall_mshr_misses::total             6290                       # number of overall MSHR misses
system.l2.ReadExReq_mshr_miss_latency::cpu0.data    186985500                       # number of ReadExReq MSHR miss cycles
system.l2.ReadExReq_mshr_miss_latency::total    186985500                       # number of ReadExReq MSHR miss cycles
system.l2.ReadCleanReq_mshr_miss_latency::cpu0.inst     94056000                       # number of ReadCleanReq MSHR miss cycles
system.l2.ReadCleanReq_mshr_miss_latency::total     94056000                       # number of ReadCleanReq MSHR miss cycles
system.l2.ReadSharedReq_mshr_miss_latency::cpu0.data     42809500                       # number of ReadSharedReq MSHR miss cycles
system.l2.ReadSharedReq_mshr_miss_latency::total     42809500                       # number of ReadSharedReq MSHR miss cycles
system.l2.demand_mshr_miss_latency::cpu0.inst     94056000                       # number of demand (read+write) MSHR miss cycles
system.l2.demand_mshr_miss_latency::cpu0.data    229795000                       # number of demand (read+write) MSHR miss cycles
system.l2.demand_mshr_miss_latency::total    323851000                       # number of demand (read+write) MSHR miss cycles
system.l2.overall_mshr_miss_latency::cpu0.inst     94056000                       # number of overall MSHR miss cycles
system.l2.overall_mshr_miss_latency::cpu0.data    229795000                       # number of overall MSHR miss cycles
system.l2.overall_mshr_miss_latency::total    323851000                       # number of overall MSHR miss cycles
system.l2.CleanEvict_mshr_miss_rate::writebacks          inf                       # mshr miss rate for CleanEvict accesses
system.l2.CleanEvict_mshr_miss_rate::total          inf                       # mshr miss rate for CleanEvict accesses
system.l2.ReadExReq_mshr_miss_rate::cpu0.data     0.638850                       # mshr miss rate for ReadExReq accesses
system.l2.ReadExReq_mshr_miss_rate::total     0.638850                       # mshr miss rate for ReadExReq accesses
system.l2.ReadCleanReq_mshr_miss_rate::cpu0.inst     0.021532                       # mshr miss rate for ReadCleanReq accesses
system.l2.ReadCleanReq_mshr_miss_rate::total     0.021532                       # mshr miss rate for ReadCleanReq accesses
system.l2.ReadSharedReq_mshr_miss_rate::cpu0.data     0.205992                       # mshr miss rate for ReadSharedReq accesses
system.l2.ReadSharedReq_mshr_miss_rate::total     0.205992                       # mshr miss rate for ReadSharedReq accesses
system.l2.demand_mshr_miss_rate::cpu0.inst     0.021532                       # mshr miss rate for demand accesses
system.l2.demand_mshr_miss_rate::cpu0.data     0.458741                       # mshr miss rate for demand accesses
system.l2.demand_mshr_miss_rate::total       0.066195                       # mshr miss rate for demand accesses
system.l2.overall_mshr_miss_rate::cpu0.inst     0.021532                       # mshr miss rate for overall accesses
system.l2.overall_mshr_miss_rate::cpu0.data     0.458741                       # mshr miss rate for overall accesses
system.l2.overall_mshr_miss_rate::total      0.066195                       # mshr miss rate for overall accesses
system.l2.ReadExReq_avg_mshr_miss_latency::cpu0.data 51639.188070                       # average ReadExReq mshr miss latency
system.l2.ReadExReq_avg_mshr_miss_latency::total 51639.188070                       # average ReadExReq mshr miss latency
system.l2.ReadCleanReq_avg_mshr_miss_latency::cpu0.inst 51200.870985                       # average ReadCleanReq mshr miss latency
system.l2.ReadCleanReq_avg_mshr_miss_latency::total 51200.870985                       # average ReadCleanReq mshr miss latency
system.l2.ReadSharedReq_avg_mshr_miss_latency::cpu0.data 51453.725962                       # average ReadSharedReq mshr miss latency
system.l2.ReadSharedReq_avg_mshr_miss_latency::total 51453.725962                       # average ReadSharedReq mshr miss latency
system.l2.demand_avg_mshr_miss_latency::cpu0.inst 51200.870985                       # average overall mshr miss latency
system.l2.demand_avg_mshr_miss_latency::cpu0.data 51604.536268                       # average overall mshr miss latency
system.l2.demand_avg_mshr_miss_latency::total 51486.645469                       # average overall mshr miss latency
system.l2.overall_avg_mshr_miss_latency::cpu0.inst 51200.870985                       # average overall mshr miss latency
system.l2.overall_avg_mshr_miss_latency::cpu0.data 51604.536268                       # average overall mshr miss latency
system.l2.overall_avg_mshr_miss_latency::total 51486.645469                       # average overall mshr miss latency
system.membus.snoop_filter.tot_requests          9082                       # Total number of requests made to the snoop filter.
system.membus.snoop_filter.hit_single_requests         2115                       # Number of requests hitting in the snoop filter with a single holder of the requested data.
system.membus.snoop_filter.hit_multi_requests            0                       # Number of requests hitting in the snoop filter with multiple (>1) holders of the requested data.
system.membus.snoop_filter.tot_snoops               0                       # Total number of snoops made to the snoop filter.
system.membus.snoop_filter.hit_single_snoops            0                       # Number of snoops hitting in the snoop filter with a single holder of the requested data.
system.membus.snoop_filter.hit_multi_snoops            0                       # Number of snoops hitting in the snoop filter with multiple (>1) holders of the requested data.
system.membus.pwrStateResidencyTicks::UNDEFINED 545537231000                       # Cumulative time (in ticks) in various power states
system.membus.trans_dist::ReadResp               2669                       # Transaction distribution
system.membus.trans_dist::WritebackDirty         1114                       # Transaction distribution
system.membus.trans_dist::CleanEvict              933                       # Transaction distribution
system.membus.trans_dist::ReadExReq              3621                       # Transaction distribution
system.membus.trans_dist::ReadExResp             3621                       # Transaction distribution
system.membus.trans_dist::ReadSharedReq          2669                       # Transaction distribution
system.membus.pkt_count_system.l2.mem_side::system.physmem.port        14627                       # Packet count per connected master and slave (bytes)
system.membus.pkt_count::total                  14627                       # Packet count per connected master and slave (bytes)
system.membus.pkt_size_system.l2.mem_side::system.physmem.port       473856                       # Cumulative packet size per connected master and slave (bytes)
system.membus.pkt_size::total                  473856                       # Cumulative packet size per connected master and slave (bytes)
system.membus.snoops                                0                       # Total snoops (count)
system.membus.snoopTraffic                          0                       # Total snoop traffic (bytes)
system.membus.snoop_fanout::samples              6969                       # Request fanout histogram
system.membus.snoop_fanout::mean                    0                       # Request fanout histogram
system.membus.snoop_fanout::stdev                   0                       # Request fanout histogram
system.membus.snoop_fanout::underflows              0      0.00%      0.00% # Request fanout histogram
system.membus.snoop_fanout::0                    6969    100.00%    100.00% # Request fanout histogram
system.membus.snoop_fanout::1                       0      0.00%    100.00% # Request fanout histogram
system.membus.snoop_fanout::overflows               0      0.00%    100.00% # Request fanout histogram
system.membus.snoop_fanout::min_value               0                       # Request fanout histogram
system.membus.snoop_fanout::max_value               0                       # Request fanout histogram
system.membus.snoop_fanout::total                6969                       # Request fanout histogram
system.membus.reqLayer0.occupancy            16834236                       # Layer occupancy (ticks)
system.membus.reqLayer0.utilization               0.0                       # Layer utilization (%)
system.membus.respLayer1.occupancy           31450000                       # Layer occupancy (ticks)
system.membus.respLayer1.utilization              0.0                       # Layer utilization (%)
system.tol2bus.snoop_filter.tot_requests       189022                       # Total number of requests made to the snoop filter.
system.tol2bus.snoop_filter.hit_single_requests        94032                       # Number of requests hitting in the snoop filter with a single holder of the requested data.
system.tol2bus.snoop_filter.hit_multi_requests         1844                       # Number of requests hitting in the snoop filter with multiple (>1) holders of the requested data.
system.tol2bus.snoop_filter.tot_snoops            189                       # Total number of snoops made to the snoop filter.
system.tol2bus.snoop_filter.hit_single_snoops          184                       # Number of snoops hitting in the snoop filter with a single holder of the requested data.
system.tol2bus.snoop_filter.hit_multi_snoops            5                       # Number of snoops hitting in the snoop filter with multiple (>1) holders of the requested data.
system.tol2bus.pwrStateResidencyTicks::UNDEFINED 545537231000                       # Cumulative time (in ticks) in various power states
system.tol2bus.trans_dist::ReadResp             89355                       # Transaction distribution
system.tol2bus.trans_dist::WritebackDirty         7335                       # Transaction distribution
system.tol2bus.trans_dist::WritebackClean        84804                       # Transaction distribution
system.tol2bus.trans_dist::CleanEvict            4091                       # Transaction distribution
system.tol2bus.trans_dist::ReadExReq             5668                       # Transaction distribution
system.tol2bus.trans_dist::ReadExResp            5668                       # Transaction distribution
system.tol2bus.trans_dist::ReadCleanReq         85316                       # Transaction distribution
system.tol2bus.trans_dist::ReadSharedReq         4039                       # Transaction distribution
system.tol2bus.pkt_count_system.cpu0.icache.mem_side::system.l2.cpu_side       255436                       # Packet count per connected master and slave (bytes)
system.tol2bus.pkt_count_system.cpu0.dcache.mem_side::system.l2.cpu_side        28609                       # Packet count per connected master and slave (bytes)
system.tol2bus.pkt_count::total                284045                       # Packet count per connected master and slave (bytes)
system.tol2bus.pkt_size_system.cpu0.icache.mem_side::system.l2.cpu_side     10887680                       # Cumulative packet size per connected master and slave (bytes)
system.tol2bus.pkt_size_system.cpu0.dcache.mem_side::system.l2.cpu_side      1019392                       # Cumulative packet size per connected master and slave (bytes)
system.tol2bus.pkt_size::total               11907072                       # Cumulative packet size per connected master and slave (bytes)
system.tol2bus.snoops                            2231                       # Total snoops (count)
system.tol2bus.snoopTraffic                     71296                       # Total snoop traffic (bytes)
system.tol2bus.snoop_fanout::samples            97254                       # Request fanout histogram
system.tol2bus.snoop_fanout::mean            0.021295                       # Request fanout histogram
system.tol2bus.snoop_fanout::stdev           0.144722                       # Request fanout histogram
system.tol2bus.snoop_fanout::underflows             0      0.00%      0.00% # Request fanout histogram
system.tol2bus.snoop_fanout::0                  95188     97.88%     97.88% # Request fanout histogram
system.tol2bus.snoop_fanout::1                   2061      2.12%     99.99% # Request fanout histogram
system.tol2bus.snoop_fanout::2                      5      0.01%    100.00% # Request fanout histogram
system.tol2bus.snoop_fanout::3                      0      0.00%    100.00% # Request fanout histogram
system.tol2bus.snoop_fanout::4                      0      0.00%    100.00% # Request fanout histogram
system.tol2bus.snoop_fanout::5                      0      0.00%    100.00% # Request fanout histogram
system.tol2bus.snoop_fanout::6                      0      0.00%    100.00% # Request fanout histogram
system.tol2bus.snoop_fanout::7                      0      0.00%    100.00% # Request fanout histogram
system.tol2bus.snoop_fanout::8                      0      0.00%    100.00% # Request fanout histogram
system.tol2bus.snoop_fanout::9                      0      0.00%    100.00% # Request fanout histogram
system.tol2bus.snoop_fanout::10                     0      0.00%    100.00% # Request fanout histogram
system.tol2bus.snoop_fanout::11                     0      0.00%    100.00% # Request fanout histogram
system.tol2bus.snoop_fanout::12                     0      0.00%    100.00% # Request fanout histogram
system.tol2bus.snoop_fanout::13                     0      0.00%    100.00% # Request fanout histogram
system.tol2bus.snoop_fanout::14                     0      0.00%    100.00% # Request fanout histogram
system.tol2bus.snoop_fanout::15                     0      0.00%    100.00% # Request fanout histogram
system.tol2bus.snoop_fanout::16                     0      0.00%    100.00% # Request fanout histogram
system.tol2bus.snoop_fanout::overflows              0      0.00%    100.00% # Request fanout histogram
system.tol2bus.snoop_fanout::min_value              0                       # Request fanout histogram
system.tol2bus.snoop_fanout::max_value              2                       # Request fanout histogram
system.tol2bus.snoop_fanout::total              97254                       # Request fanout histogram
system.tol2bus.reqLayer0.occupancy          185536000                       # Layer occupancy (ticks)
system.tol2bus.reqLayer0.utilization              0.0                       # Layer utilization (%)
system.tol2bus.respLayer0.occupancy         127978491                       # Layer occupancy (ticks)
system.tol2bus.respLayer0.utilization             0.0                       # Layer utilization (%)
system.tol2bus.respLayer1.occupancy          14571478                       # Layer occupancy (ticks)
system.tol2bus.respLayer1.utilization             0.0                       # Layer utilization (%)

---------- End Simulation Statistics   ----------
