
---------- Begin Simulation Statistics ----------
sim_seconds                                  0.295334                       # Number of seconds simulated
sim_ticks                                295333783000                       # Number of ticks simulated
final_tick                               295333783000                       # Number of ticks from beginning of simulation (restored from checkpoints and never reset)
sim_freq                                 1000000000000                       # Frequency of simulated ticks
host_inst_rate                                 252593                       # Simulator instruction rate (inst/s)
host_op_rate                                   284352                       # Simulator op (including micro ops) rate (op/s)
host_tick_rate                              126009847                       # Simulator tick rate (ticks/s)
host_mem_usage                                 723596                       # Number of bytes of host memory used
host_seconds                                  2343.74                       # Real time elapsed on the host
sim_insts                                   592010972                       # Number of instructions simulated
sim_ops                                     666446722                       # Number of ops (including micro ops) simulated
system.voltage_domain.voltage                       1                       # Voltage in Volts
system.clk_domain.clock                          1000                       # Clock period in ticks
system.physmem.pwrStateResidencyTicks::UNDEFINED 295333783000                       # Cumulative time (in ticks) in various power states
system.physmem.bytes_read::cpu0.inst           617088                       # Number of bytes read from this memory
system.physmem.bytes_read::cpu0.data           355648                       # Number of bytes read from this memory
system.physmem.bytes_read::cpu1.inst           209664                       # Number of bytes read from this memory
system.physmem.bytes_read::cpu1.data           226752                       # Number of bytes read from this memory
system.physmem.bytes_read::total              1409152                       # Number of bytes read from this memory
system.physmem.bytes_inst_read::cpu0.inst       617088                       # Number of instructions bytes read from this memory
system.physmem.bytes_inst_read::cpu1.inst       209664                       # Number of instructions bytes read from this memory
system.physmem.bytes_inst_read::total          826752                       # Number of instructions bytes read from this memory
system.physmem.bytes_written::writebacks       297408                       # Number of bytes written to this memory
system.physmem.bytes_written::total            297408                       # Number of bytes written to this memory
system.physmem.num_reads::cpu0.inst              9642                       # Number of read requests responded to by this memory
system.physmem.num_reads::cpu0.data              5557                       # Number of read requests responded to by this memory
system.physmem.num_reads::cpu1.inst              3276                       # Number of read requests responded to by this memory
system.physmem.num_reads::cpu1.data              3543                       # Number of read requests responded to by this memory
system.physmem.num_reads::total                 22018                       # Number of read requests responded to by this memory
system.physmem.num_writes::writebacks            4647                       # Number of write requests responded to by this memory
system.physmem.num_writes::total                 4647                       # Number of write requests responded to by this memory
system.physmem.bw_read::cpu0.inst             2089460                       # Total read bandwidth from this memory (bytes/s)
system.physmem.bw_read::cpu0.data             1204224                       # Total read bandwidth from this memory (bytes/s)
system.physmem.bw_read::cpu1.inst              709922                       # Total read bandwidth from this memory (bytes/s)
system.physmem.bw_read::cpu1.data              767782                       # Total read bandwidth from this memory (bytes/s)
system.physmem.bw_read::total                 4771388                       # Total read bandwidth from this memory (bytes/s)
system.physmem.bw_inst_read::cpu0.inst        2089460                       # Instruction read bandwidth from this memory (bytes/s)
system.physmem.bw_inst_read::cpu1.inst         709922                       # Instruction read bandwidth from this memory (bytes/s)
system.physmem.bw_inst_read::total            2799382                       # Instruction read bandwidth from this memory (bytes/s)
system.physmem.bw_write::writebacks           1007023                       # Write bandwidth from this memory (bytes/s)
system.physmem.bw_write::total                1007023                       # Write bandwidth from this memory (bytes/s)
system.physmem.bw_total::writebacks           1007023                       # Total bandwidth to/from this memory (bytes/s)
system.physmem.bw_total::cpu0.inst            2089460                       # Total bandwidth to/from this memory (bytes/s)
system.physmem.bw_total::cpu0.data            1204224                       # Total bandwidth to/from this memory (bytes/s)
system.physmem.bw_total::cpu1.inst             709922                       # Total bandwidth to/from this memory (bytes/s)
system.physmem.bw_total::cpu1.data             767782                       # Total bandwidth to/from this memory (bytes/s)
system.physmem.bw_total::total                5778411                       # Total bandwidth to/from this memory (bytes/s)
system.pwrStateResidencyTicks::UNDEFINED 295333783000                       # Cumulative time (in ticks) in various power states
system.cpu0.branchPred.lookups               62056198                       # Number of BP lookups
system.cpu0.branchPred.condPredicted         36108291                       # Number of conditional branches predicted
system.cpu0.branchPred.condIncorrect          1487362                       # Number of conditional branches incorrect
system.cpu0.branchPred.BTBLookups            34334167                       # Number of BTB lookups
system.cpu0.branchPred.BTBHits               29347455                       # Number of BTB hits
system.cpu0.branchPred.BTBCorrect                   0                       # Number of correct BTB predictions (this stat may not work properly.
system.cpu0.branchPred.BTBHitPct            85.475949                       # BTB Hit Percentage
system.cpu0.branchPred.usedRAS                8415549                       # Number of times the RAS was used to get a target.
system.cpu0.branchPred.RASInCorrect            155753                       # Number of incorrect RAS predictions.
system.cpu0.branchPred.indirectLookups        1928579                       # Number of indirect predictor lookups.
system.cpu0.branchPred.indirectHits           1913285                       # Number of indirect target hits.
system.cpu0.branchPred.indirectMisses           15294                       # Number of indirect misses.
system.cpu0.branchPredindirectMispredicted        16879                       # Number of mispredicted indirect branches.
system.cpu0.dstage2_mmu.stage2_tlb.walker.pwrStateResidencyTicks::UNDEFINED 295333783000                       # Cumulative time (in ticks) in various power states
system.cpu0.dstage2_mmu.stage2_tlb.walker.walks            0                       # Table walker walks requested
system.cpu0.dstage2_mmu.stage2_tlb.walker.walkRequestOrigin_Requested::Data            0                       # Table walker requests started/completed, data/inst
system.cpu0.dstage2_mmu.stage2_tlb.walker.walkRequestOrigin_Requested::Inst            0                       # Table walker requests started/completed, data/inst
system.cpu0.dstage2_mmu.stage2_tlb.walker.walkRequestOrigin_Requested::total            0                       # Table walker requests started/completed, data/inst
system.cpu0.dstage2_mmu.stage2_tlb.walker.walkRequestOrigin_Completed::Data            0                       # Table walker requests started/completed, data/inst
system.cpu0.dstage2_mmu.stage2_tlb.walker.walkRequestOrigin_Completed::Inst            0                       # Table walker requests started/completed, data/inst
system.cpu0.dstage2_mmu.stage2_tlb.walker.walkRequestOrigin_Completed::total            0                       # Table walker requests started/completed, data/inst
system.cpu0.dstage2_mmu.stage2_tlb.walker.walkRequestOrigin::total            0                       # Table walker requests started/completed, data/inst
system.cpu0.dstage2_mmu.stage2_tlb.inst_hits            0                       # ITB inst hits
system.cpu0.dstage2_mmu.stage2_tlb.inst_misses            0                       # ITB inst misses
system.cpu0.dstage2_mmu.stage2_tlb.read_hits            0                       # DTB read hits
system.cpu0.dstage2_mmu.stage2_tlb.read_misses            0                       # DTB read misses
system.cpu0.dstage2_mmu.stage2_tlb.write_hits            0                       # DTB write hits
system.cpu0.dstage2_mmu.stage2_tlb.write_misses            0                       # DTB write misses
system.cpu0.dstage2_mmu.stage2_tlb.flush_tlb            0                       # Number of times complete TLB was flushed
system.cpu0.dstage2_mmu.stage2_tlb.flush_tlb_mva            0                       # Number of times TLB was flushed by MVA
system.cpu0.dstage2_mmu.stage2_tlb.flush_tlb_mva_asid            0                       # Number of times TLB was flushed by MVA & ASID
system.cpu0.dstage2_mmu.stage2_tlb.flush_tlb_asid            0                       # Number of times TLB was flushed by ASID
system.cpu0.dstage2_mmu.stage2_tlb.flush_entries            0                       # Number of entries that have been flushed from TLB
system.cpu0.dstage2_mmu.stage2_tlb.align_faults            0                       # Number of TLB faults due to alignment restrictions
system.cpu0.dstage2_mmu.stage2_tlb.prefetch_faults            0                       # Number of TLB faults due to prefetch
system.cpu0.dstage2_mmu.stage2_tlb.domain_faults            0                       # Number of TLB faults due to domain restrictions
system.cpu0.dstage2_mmu.stage2_tlb.perms_faults            0                       # Number of TLB faults due to permissions restrictions
system.cpu0.dstage2_mmu.stage2_tlb.read_accesses            0                       # DTB read accesses
system.cpu0.dstage2_mmu.stage2_tlb.write_accesses            0                       # DTB write accesses
system.cpu0.dstage2_mmu.stage2_tlb.inst_accesses            0                       # ITB inst accesses
system.cpu0.dstage2_mmu.stage2_tlb.hits             0                       # DTB hits
system.cpu0.dstage2_mmu.stage2_tlb.misses            0                       # DTB misses
system.cpu0.dstage2_mmu.stage2_tlb.accesses            0                       # DTB accesses
system.cpu0.dtb.walker.pwrStateResidencyTicks::UNDEFINED 295333783000                       # Cumulative time (in ticks) in various power states
system.cpu0.dtb.walker.walks                        0                       # Table walker walks requested
system.cpu0.dtb.walker.walkRequestOrigin_Requested::Data            0                       # Table walker requests started/completed, data/inst
system.cpu0.dtb.walker.walkRequestOrigin_Requested::Inst            0                       # Table walker requests started/completed, data/inst
system.cpu0.dtb.walker.walkRequestOrigin_Requested::total            0                       # Table walker requests started/completed, data/inst
system.cpu0.dtb.walker.walkRequestOrigin_Completed::Data            0                       # Table walker requests started/completed, data/inst
system.cpu0.dtb.walker.walkRequestOrigin_Completed::Inst            0                       # Table walker requests started/completed, data/inst
system.cpu0.dtb.walker.walkRequestOrigin_Completed::total            0                       # Table walker requests started/completed, data/inst
system.cpu0.dtb.walker.walkRequestOrigin::total            0                       # Table walker requests started/completed, data/inst
system.cpu0.dtb.inst_hits                           0                       # ITB inst hits
system.cpu0.dtb.inst_misses                         0                       # ITB inst misses
system.cpu0.dtb.read_hits                           0                       # DTB read hits
system.cpu0.dtb.read_misses                         0                       # DTB read misses
system.cpu0.dtb.write_hits                          0                       # DTB write hits
system.cpu0.dtb.write_misses                        0                       # DTB write misses
system.cpu0.dtb.flush_tlb                           0                       # Number of times complete TLB was flushed
system.cpu0.dtb.flush_tlb_mva                       0                       # Number of times TLB was flushed by MVA
system.cpu0.dtb.flush_tlb_mva_asid                  0                       # Number of times TLB was flushed by MVA & ASID
system.cpu0.dtb.flush_tlb_asid                      0                       # Number of times TLB was flushed by ASID
system.cpu0.dtb.flush_entries                       0                       # Number of entries that have been flushed from TLB
system.cpu0.dtb.align_faults                        0                       # Number of TLB faults due to alignment restrictions
system.cpu0.dtb.prefetch_faults                     0                       # Number of TLB faults due to prefetch
system.cpu0.dtb.domain_faults                       0                       # Number of TLB faults due to domain restrictions
system.cpu0.dtb.perms_faults                        0                       # Number of TLB faults due to permissions restrictions
system.cpu0.dtb.read_accesses                       0                       # DTB read accesses
system.cpu0.dtb.write_accesses                      0                       # DTB write accesses
system.cpu0.dtb.inst_accesses                       0                       # ITB inst accesses
system.cpu0.dtb.hits                                0                       # DTB hits
system.cpu0.dtb.misses                              0                       # DTB misses
system.cpu0.dtb.accesses                            0                       # DTB accesses
system.cpu0.istage2_mmu.stage2_tlb.walker.pwrStateResidencyTicks::UNDEFINED 295333783000                       # Cumulative time (in ticks) in various power states
system.cpu0.istage2_mmu.stage2_tlb.walker.walks            0                       # Table walker walks requested
system.cpu0.istage2_mmu.stage2_tlb.walker.walkRequestOrigin_Requested::Data            0                       # Table walker requests started/completed, data/inst
system.cpu0.istage2_mmu.stage2_tlb.walker.walkRequestOrigin_Requested::Inst            0                       # Table walker requests started/completed, data/inst
system.cpu0.istage2_mmu.stage2_tlb.walker.walkRequestOrigin_Requested::total            0                       # Table walker requests started/completed, data/inst
system.cpu0.istage2_mmu.stage2_tlb.walker.walkRequestOrigin_Completed::Data            0                       # Table walker requests started/completed, data/inst
system.cpu0.istage2_mmu.stage2_tlb.walker.walkRequestOrigin_Completed::Inst            0                       # Table walker requests started/completed, data/inst
system.cpu0.istage2_mmu.stage2_tlb.walker.walkRequestOrigin_Completed::total            0                       # Table walker requests started/completed, data/inst
system.cpu0.istage2_mmu.stage2_tlb.walker.walkRequestOrigin::total            0                       # Table walker requests started/completed, data/inst
system.cpu0.istage2_mmu.stage2_tlb.inst_hits            0                       # ITB inst hits
system.cpu0.istage2_mmu.stage2_tlb.inst_misses            0                       # ITB inst misses
system.cpu0.istage2_mmu.stage2_tlb.read_hits            0                       # DTB read hits
system.cpu0.istage2_mmu.stage2_tlb.read_misses            0                       # DTB read misses
system.cpu0.istage2_mmu.stage2_tlb.write_hits            0                       # DTB write hits
system.cpu0.istage2_mmu.stage2_tlb.write_misses            0                       # DTB write misses
system.cpu0.istage2_mmu.stage2_tlb.flush_tlb            0                       # Number of times complete TLB was flushed
system.cpu0.istage2_mmu.stage2_tlb.flush_tlb_mva            0                       # Number of times TLB was flushed by MVA
system.cpu0.istage2_mmu.stage2_tlb.flush_tlb_mva_asid            0                       # Number of times TLB was flushed by MVA & ASID
system.cpu0.istage2_mmu.stage2_tlb.flush_tlb_asid            0                       # Number of times TLB was flushed by ASID
system.cpu0.istage2_mmu.stage2_tlb.flush_entries            0                       # Number of entries that have been flushed from TLB
system.cpu0.istage2_mmu.stage2_tlb.align_faults            0                       # Number of TLB faults due to alignment restrictions
system.cpu0.istage2_mmu.stage2_tlb.prefetch_faults            0                       # Number of TLB faults due to prefetch
system.cpu0.istage2_mmu.stage2_tlb.domain_faults            0                       # Number of TLB faults due to domain restrictions
system.cpu0.istage2_mmu.stage2_tlb.perms_faults            0                       # Number of TLB faults due to permissions restrictions
system.cpu0.istage2_mmu.stage2_tlb.read_accesses            0                       # DTB read accesses
system.cpu0.istage2_mmu.stage2_tlb.write_accesses            0                       # DTB write accesses
system.cpu0.istage2_mmu.stage2_tlb.inst_accesses            0                       # ITB inst accesses
system.cpu0.istage2_mmu.stage2_tlb.hits             0                       # DTB hits
system.cpu0.istage2_mmu.stage2_tlb.misses            0                       # DTB misses
system.cpu0.istage2_mmu.stage2_tlb.accesses            0                       # DTB accesses
system.cpu0.itb.walker.pwrStateResidencyTicks::UNDEFINED 295333783000                       # Cumulative time (in ticks) in various power states
system.cpu0.itb.walker.walks                        0                       # Table walker walks requested
system.cpu0.itb.walker.walkRequestOrigin_Requested::Data            0                       # Table walker requests started/completed, data/inst
system.cpu0.itb.walker.walkRequestOrigin_Requested::Inst            0                       # Table walker requests started/completed, data/inst
system.cpu0.itb.walker.walkRequestOrigin_Requested::total            0                       # Table walker requests started/completed, data/inst
system.cpu0.itb.walker.walkRequestOrigin_Completed::Data            0                       # Table walker requests started/completed, data/inst
system.cpu0.itb.walker.walkRequestOrigin_Completed::Inst            0                       # Table walker requests started/completed, data/inst
system.cpu0.itb.walker.walkRequestOrigin_Completed::total            0                       # Table walker requests started/completed, data/inst
system.cpu0.itb.walker.walkRequestOrigin::total            0                       # Table walker requests started/completed, data/inst
system.cpu0.itb.inst_hits                           0                       # ITB inst hits
system.cpu0.itb.inst_misses                         0                       # ITB inst misses
system.cpu0.itb.read_hits                           0                       # DTB read hits
system.cpu0.itb.read_misses                         0                       # DTB read misses
system.cpu0.itb.write_hits                          0                       # DTB write hits
system.cpu0.itb.write_misses                        0                       # DTB write misses
system.cpu0.itb.flush_tlb                           0                       # Number of times complete TLB was flushed
system.cpu0.itb.flush_tlb_mva                       0                       # Number of times TLB was flushed by MVA
system.cpu0.itb.flush_tlb_mva_asid                  0                       # Number of times TLB was flushed by MVA & ASID
system.cpu0.itb.flush_tlb_asid                      0                       # Number of times TLB was flushed by ASID
system.cpu0.itb.flush_entries                       0                       # Number of entries that have been flushed from TLB
system.cpu0.itb.align_faults                        0                       # Number of TLB faults due to alignment restrictions
system.cpu0.itb.prefetch_faults                     0                       # Number of TLB faults due to prefetch
system.cpu0.itb.domain_faults                       0                       # Number of TLB faults due to domain restrictions
system.cpu0.itb.perms_faults                        0                       # Number of TLB faults due to permissions restrictions
system.cpu0.itb.read_accesses                       0                       # DTB read accesses
system.cpu0.itb.write_accesses                      0                       # DTB write accesses
system.cpu0.itb.inst_accesses                       0                       # ITB inst accesses
system.cpu0.itb.hits                                0                       # DTB hits
system.cpu0.itb.misses                              0                       # DTB misses
system.cpu0.itb.accesses                            0                       # DTB accesses
system.cpu0.workload.num_syscalls               37668                       # Number of system calls
system.cpu0.pwrStateResidencyTicks::ON   295333783000                       # Cumulative time (in ticks) in various power states
system.cpu0.numCycles                       295333784                       # number of cpu cycles simulated
system.cpu0.numWorkItemsStarted                     0                       # number of work items this cpu started
system.cpu0.numWorkItemsCompleted                   0                       # number of work items this cpu completed
system.cpu0.fetch.icacheStallCycles          57332875                       # Number of cycles fetch is stalled on an Icache miss
system.cpu0.fetch.Insts                     355677520                       # Number of instructions fetch has processed
system.cpu0.fetch.Branches                   62056198                       # Number of branches that fetch encountered
system.cpu0.fetch.predictedBranches          39676289                       # Number of branches that fetch has predicted taken
system.cpu0.fetch.Cycles                    236254484                       # Number of cycles fetch has run and was not squashing or blocked
system.cpu0.fetch.SquashCycles                2995701                       # Number of cycles fetch has spent squashing
system.cpu0.fetch.MiscStallCycles                  20                       # Number of cycles fetch has spent waiting on interrupts, or bad addresses, or out of MSHRs
system.cpu0.fetch.PendingTrapStallCycles          539                       # Number of stall cycles due to pending traps
system.cpu0.fetch.CacheLines                 49657589                       # Number of cache lines fetched
system.cpu0.fetch.IcacheSquashes               274824                       # Number of outstanding Icache misses that were squashed
system.cpu0.fetch.rateDist::samples         295085768                       # Number of instructions fetched each cycle (Total)
system.cpu0.fetch.rateDist::mean             1.363861                       # Number of instructions fetched each cycle (Total)
system.cpu0.fetch.rateDist::stdev            0.864875                       # Number of instructions fetched each cycle (Total)
system.cpu0.fetch.rateDist::underflows              0      0.00%      0.00% # Number of instructions fetched each cycle (Total)
system.cpu0.fetch.rateDist::0                76212171     25.83%     25.83% # Number of instructions fetched each cycle (Total)
system.cpu0.fetch.rateDist::1                35291318     11.96%     37.79% # Number of instructions fetched each cycle (Total)
system.cpu0.fetch.rateDist::2               183582279     62.21%    100.00% # Number of instructions fetched each cycle (Total)
system.cpu0.fetch.rateDist::overflows               0      0.00%    100.00% # Number of instructions fetched each cycle (Total)
system.cpu0.fetch.rateDist::min_value               0                       # Number of instructions fetched each cycle (Total)
system.cpu0.fetch.rateDist::max_value               2                       # Number of instructions fetched each cycle (Total)
system.cpu0.fetch.rateDist::total           295085768                       # Number of instructions fetched each cycle (Total)
system.cpu0.fetch.branchRate                 0.210122                       # Number of branch fetches per cycle
system.cpu0.fetch.rate                       1.204324                       # Number of inst fetches per cycle
system.cpu0.decode.IdleCycles                48473336                       # Number of cycles decode is idle
system.cpu0.decode.BlockedCycles             42712147                       # Number of cycles decode is blocked
system.cpu0.decode.RunCycles                157352462                       # Number of cycles decode is running
system.cpu0.decode.UnblockCycles             45161807                       # Number of cycles decode is unblocking
system.cpu0.decode.SquashCycles               1386016                       # Number of cycles decode is squashing
system.cpu0.decode.BranchResolved            18030773                       # Number of times decode resolved a branch
system.cpu0.decode.BranchMispred               112469                       # Number of times decode detected a branch misprediction
system.cpu0.decode.DecodedInsts             393924008                       # Number of instructions handled by decode
system.cpu0.decode.SquashedInsts               192806                       # Number of squashed instructions handled by decode
system.cpu0.rename.SquashCycles               1386016                       # Number of cycles rename is squashing
system.cpu0.rename.IdleCycles                58056779                       # Number of cycles rename is idle
system.cpu0.rename.BlockCycles                4788281                       # Number of cycles rename is blocking
system.cpu0.rename.serializeStallCycles       1501838                       # count of cycles rename stalled for serializing inst
system.cpu0.rename.RunCycles                192844191                       # Number of cycles rename is running
system.cpu0.rename.UnblockCycles             36508663                       # Number of cycles rename is unblocking
system.cpu0.rename.RenamedInsts             391816297                       # Number of instructions processed by rename
system.cpu0.rename.IQFullEvents              27899354                       # Number of times rename has blocked due to IQ full
system.cpu0.rename.LQFullEvents                199953                       # Number of times rename has blocked due to LQ full
system.cpu0.rename.SQFullEvents                  6672                       # Number of times rename has blocked due to SQ full
system.cpu0.rename.RenamedOperands          497533012                       # Number of destination operands rename has renamed
system.cpu0.rename.RenameLookups           1820339135                       # Number of register rename lookups that rename has made
system.cpu0.rename.int_rename_lookups       507721124                       # Number of integer rename lookups
system.cpu0.rename.fp_rename_lookups               16                       # Number of floating rename lookups
system.cpu0.rename.CommittedMaps            428674722                       # Number of HB maps that are committed
system.cpu0.rename.UndoneMaps                68858290                       # Number of HB maps that are undone due to squashing
system.cpu0.rename.serializingInsts             54422                       # count of serializing insts renamed
system.cpu0.rename.tempSerializingInsts         26672                       # count of temporary serializing insts renamed
system.cpu0.rename.skidInsts                 39215805                       # count of insts added to the skid buffer
system.cpu0.memDep0.insertedLoads            48782435                       # Number of loads inserted to the mem dependence unit.
system.cpu0.memDep0.insertedStores           30195449                       # Number of stores inserted to the mem dependence unit.
system.cpu0.memDep0.conflictingLoads         17022109                       # Number of conflicting loads.
system.cpu0.memDep0.conflictingStores         6526013                       # Number of conflicting stores.
system.cpu0.iq.iqInstsAdded                 387630166                       # Number of instructions added to the IQ (excludes non-spec)
system.cpu0.iq.iqNonSpecInstsAdded              56987                       # Number of non-speculative instructions added to the IQ
system.cpu0.iq.iqInstsIssued                350222576                       # Number of instructions issued
system.cpu0.iq.iqSquashedInstsIssued          5129502                       # Number of squashed instructions issued
system.cpu0.iq.iqSquashedInstsExamined       43771831                       # Number of squashed instructions iterated over during squash; mainly for profiling
system.cpu0.iq.iqSquashedOperandsExamined    178691294                       # Number of squashed operands that are examined and possibly removed from graph
system.cpu0.iq.iqSquashedNonSpecRemoved           837                       # Number of squashed non-spec instructions that were removed
system.cpu0.iq.issued_per_cycle::samples    295085768                       # Number of insts issued each cycle
system.cpu0.iq.issued_per_cycle::mean        1.186850                       # Number of insts issued each cycle
system.cpu0.iq.issued_per_cycle::stdev       0.527093                       # Number of insts issued each cycle
system.cpu0.iq.issued_per_cycle::underflows            0      0.00%      0.00% # Number of insts issued each cycle
system.cpu0.iq.issued_per_cycle::0           18574094      6.29%      6.29% # Number of insts issued each cycle
system.cpu0.iq.issued_per_cycle::1          202800772     68.73%     75.02% # Number of insts issued each cycle
system.cpu0.iq.issued_per_cycle::2           73710902     24.98%    100.00% # Number of insts issued each cycle
system.cpu0.iq.issued_per_cycle::overflows            0      0.00%    100.00% # Number of insts issued each cycle
system.cpu0.iq.issued_per_cycle::min_value            0                       # Number of insts issued each cycle
system.cpu0.iq.issued_per_cycle::max_value            2                       # Number of insts issued each cycle
system.cpu0.iq.issued_per_cycle::total      295085768                       # Number of insts issued each cycle
system.cpu0.iq.fu_full::No_OpClass                  0      0.00%      0.00% # attempts to use FU when none available
system.cpu0.iq.fu_full::IntAlu              215027660     94.80%     94.80% # attempts to use FU when none available
system.cpu0.iq.fu_full::IntMult                     0      0.00%     94.80% # attempts to use FU when none available
system.cpu0.iq.fu_full::IntDiv                      0      0.00%     94.80% # attempts to use FU when none available
system.cpu0.iq.fu_full::FloatAdd                    0      0.00%     94.80% # attempts to use FU when none available
system.cpu0.iq.fu_full::FloatCmp                    0      0.00%     94.80% # attempts to use FU when none available
system.cpu0.iq.fu_full::FloatCvt                    0      0.00%     94.80% # attempts to use FU when none available
system.cpu0.iq.fu_full::FloatMult                   0      0.00%     94.80% # attempts to use FU when none available
system.cpu0.iq.fu_full::FloatMultAcc                0      0.00%     94.80% # attempts to use FU when none available
system.cpu0.iq.fu_full::FloatDiv                    0      0.00%     94.80% # attempts to use FU when none available
system.cpu0.iq.fu_full::FloatMisc                   0      0.00%     94.80% # attempts to use FU when none available
system.cpu0.iq.fu_full::FloatSqrt                   0      0.00%     94.80% # attempts to use FU when none available
system.cpu0.iq.fu_full::SimdAdd                     0      0.00%     94.80% # attempts to use FU when none available
system.cpu0.iq.fu_full::SimdAddAcc                  0      0.00%     94.80% # attempts to use FU when none available
system.cpu0.iq.fu_full::SimdAlu                     0      0.00%     94.80% # attempts to use FU when none available
system.cpu0.iq.fu_full::SimdCmp                     0      0.00%     94.80% # attempts to use FU when none available
system.cpu0.iq.fu_full::SimdCvt                     0      0.00%     94.80% # attempts to use FU when none available
system.cpu0.iq.fu_full::SimdMisc                    0      0.00%     94.80% # attempts to use FU when none available
system.cpu0.iq.fu_full::SimdMult                    0      0.00%     94.80% # attempts to use FU when none available
system.cpu0.iq.fu_full::SimdMultAcc                 0      0.00%     94.80% # attempts to use FU when none available
system.cpu0.iq.fu_full::SimdShift                   0      0.00%     94.80% # attempts to use FU when none available
system.cpu0.iq.fu_full::SimdShiftAcc                0      0.00%     94.80% # attempts to use FU when none available
system.cpu0.iq.fu_full::SimdSqrt                    0      0.00%     94.80% # attempts to use FU when none available
system.cpu0.iq.fu_full::SimdFloatAdd                0      0.00%     94.80% # attempts to use FU when none available
system.cpu0.iq.fu_full::SimdFloatAlu                0      0.00%     94.80% # attempts to use FU when none available
system.cpu0.iq.fu_full::SimdFloatCmp                0      0.00%     94.80% # attempts to use FU when none available
system.cpu0.iq.fu_full::SimdFloatCvt                0      0.00%     94.80% # attempts to use FU when none available
system.cpu0.iq.fu_full::SimdFloatDiv                0      0.00%     94.80% # attempts to use FU when none available
system.cpu0.iq.fu_full::SimdFloatMisc               0      0.00%     94.80% # attempts to use FU when none available
system.cpu0.iq.fu_full::SimdFloatMult               0      0.00%     94.80% # attempts to use FU when none available
system.cpu0.iq.fu_full::SimdFloatMultAcc            0      0.00%     94.80% # attempts to use FU when none available
system.cpu0.iq.fu_full::SimdFloatSqrt               0      0.00%     94.80% # attempts to use FU when none available
system.cpu0.iq.fu_full::MemRead               8354282      3.68%     98.48% # attempts to use FU when none available
system.cpu0.iq.fu_full::MemWrite              3438730      1.52%    100.00% # attempts to use FU when none available
system.cpu0.iq.fu_full::FloatMemRead                0      0.00%    100.00% # attempts to use FU when none available
system.cpu0.iq.fu_full::FloatMemWrite               0      0.00%    100.00% # attempts to use FU when none available
system.cpu0.iq.fu_full::IprAccess                   0      0.00%    100.00% # attempts to use FU when none available
system.cpu0.iq.fu_full::InstPrefetch                0      0.00%    100.00% # attempts to use FU when none available
system.cpu0.iq.FU_type_0::No_OpClass                0      0.00%      0.00% # Type of FU issued
system.cpu0.iq.FU_type_0::IntAlu            272630971     77.85%     77.85% # Type of FU issued
system.cpu0.iq.FU_type_0::IntMult             1973699      0.56%     78.41% # Type of FU issued
system.cpu0.iq.FU_type_0::IntDiv                    0      0.00%     78.41% # Type of FU issued
system.cpu0.iq.FU_type_0::FloatAdd                  0      0.00%     78.41% # Type of FU issued
system.cpu0.iq.FU_type_0::FloatCmp                  0      0.00%     78.41% # Type of FU issued
system.cpu0.iq.FU_type_0::FloatCvt                  0      0.00%     78.41% # Type of FU issued
system.cpu0.iq.FU_type_0::FloatMult                 0      0.00%     78.41% # Type of FU issued
system.cpu0.iq.FU_type_0::FloatMultAcc              0      0.00%     78.41% # Type of FU issued
system.cpu0.iq.FU_type_0::FloatDiv                  0      0.00%     78.41% # Type of FU issued
system.cpu0.iq.FU_type_0::FloatMisc                 0      0.00%     78.41% # Type of FU issued
system.cpu0.iq.FU_type_0::FloatSqrt                 0      0.00%     78.41% # Type of FU issued
system.cpu0.iq.FU_type_0::SimdAdd                   0      0.00%     78.41% # Type of FU issued
system.cpu0.iq.FU_type_0::SimdAddAcc                0      0.00%     78.41% # Type of FU issued
system.cpu0.iq.FU_type_0::SimdAlu                   0      0.00%     78.41% # Type of FU issued
system.cpu0.iq.FU_type_0::SimdCmp                   0      0.00%     78.41% # Type of FU issued
system.cpu0.iq.FU_type_0::SimdCvt                   0      0.00%     78.41% # Type of FU issued
system.cpu0.iq.FU_type_0::SimdMisc                  0      0.00%     78.41% # Type of FU issued
system.cpu0.iq.FU_type_0::SimdMult                  0      0.00%     78.41% # Type of FU issued
system.cpu0.iq.FU_type_0::SimdMultAcc               0      0.00%     78.41% # Type of FU issued
system.cpu0.iq.FU_type_0::SimdShift                 0      0.00%     78.41% # Type of FU issued
system.cpu0.iq.FU_type_0::SimdShiftAcc              0      0.00%     78.41% # Type of FU issued
system.cpu0.iq.FU_type_0::SimdSqrt                  0      0.00%     78.41% # Type of FU issued
system.cpu0.iq.FU_type_0::SimdFloatAdd              0      0.00%     78.41% # Type of FU issued
system.cpu0.iq.FU_type_0::SimdFloatAlu              0      0.00%     78.41% # Type of FU issued
system.cpu0.iq.FU_type_0::SimdFloatCmp              0      0.00%     78.41% # Type of FU issued
system.cpu0.iq.FU_type_0::SimdFloatCvt              0      0.00%     78.41% # Type of FU issued
system.cpu0.iq.FU_type_0::SimdFloatDiv              0      0.00%     78.41% # Type of FU issued
system.cpu0.iq.FU_type_0::SimdFloatMisc         27526      0.01%     78.42% # Type of FU issued
system.cpu0.iq.FU_type_0::SimdFloatMult             0      0.00%     78.42% # Type of FU issued
system.cpu0.iq.FU_type_0::SimdFloatMultAcc            0      0.00%     78.42% # Type of FU issued
system.cpu0.iq.FU_type_0::SimdFloatSqrt             0      0.00%     78.42% # Type of FU issued
system.cpu0.iq.FU_type_0::MemRead            47216552     13.48%     91.90% # Type of FU issued
system.cpu0.iq.FU_type_0::MemWrite           28373812      8.10%    100.00% # Type of FU issued
system.cpu0.iq.FU_type_0::FloatMemRead              0      0.00%    100.00% # Type of FU issued
system.cpu0.iq.FU_type_0::FloatMemWrite            16      0.00%    100.00% # Type of FU issued
system.cpu0.iq.FU_type_0::IprAccess                 0      0.00%    100.00% # Type of FU issued
system.cpu0.iq.FU_type_0::InstPrefetch              0      0.00%    100.00% # Type of FU issued
system.cpu0.iq.FU_type_0::total             350222576                       # Type of FU issued
system.cpu0.iq.rate                          1.185853                       # Inst issue rate
system.cpu0.iq.fu_busy_cnt                  226820672                       # FU busy when requested
system.cpu0.iq.fu_busy_rate                  0.647647                       # FU busy rate (busy events/executed inst)
system.cpu0.iq.int_inst_queue_reads        1227481062                       # Number of integer instruction queue reads
system.cpu0.iq.int_inst_queue_writes        431464561                       # Number of integer instruction queue writes
system.cpu0.iq.int_inst_queue_wakeup_accesses    349043067                       # Number of integer instruction queue wakeup accesses
system.cpu0.iq.fp_inst_queue_reads                 32                       # Number of floating instruction queue reads
system.cpu0.iq.fp_inst_queue_writes                16                       # Number of floating instruction queue writes
system.cpu0.iq.fp_inst_queue_wakeup_accesses           16                       # Number of floating instruction queue wakeup accesses
system.cpu0.iq.int_alu_accesses             577043232                       # Number of integer alu accesses
system.cpu0.iq.fp_alu_accesses                     16                       # Number of floating point alu accesses
system.cpu0.iew.lsq.thread0.forwLoads         7082295                       # Number of loads that had data forwarded from stores
system.cpu0.iew.lsq.thread0.invAddrLoads            0                       # Number of loads ignored due to an invalid address
system.cpu0.iew.lsq.thread0.squashedLoads      3608861                       # Number of loads squashed
system.cpu0.iew.lsq.thread0.ignoredResponses         1291                       # Number of memory responses ignored because the instruction is squashed
system.cpu0.iew.lsq.thread0.memOrderViolation         5636                       # Number of memory ordering violations
system.cpu0.iew.lsq.thread0.squashedStores      2386414                       # Number of stores squashed
system.cpu0.iew.lsq.thread0.invAddrSwpfs            0                       # Number of software prefetches ignored due to an invalid address
system.cpu0.iew.lsq.thread0.blockedLoads            0                       # Number of blocked loads due to partial load-store forwarding
system.cpu0.iew.lsq.thread0.rescheduledLoads       496637                       # Number of loads that were rescheduled
system.cpu0.iew.lsq.thread0.cacheBlocked         2644                       # Number of times an access to memory failed due to the cache being blocked
system.cpu0.iew.iewIdleCycles                       0                       # Number of cycles IEW is idle
system.cpu0.iew.iewSquashCycles               1386016                       # Number of cycles IEW is squashing
system.cpu0.iew.iewBlockCycles                4698886                       # Number of cycles IEW is blocking
system.cpu0.iew.iewUnblockCycles                65431                       # Number of cycles IEW is unblocking
system.cpu0.iew.iewDispatchedInsts          387687212                       # Number of instructions dispatched to IQ
system.cpu0.iew.iewDispSquashedInsts           275869                       # Number of squashed instructions skipped by dispatch
system.cpu0.iew.iewDispLoadInsts             48782435                       # Number of dispatched load instructions
system.cpu0.iew.iewDispStoreInsts            30195449                       # Number of dispatched store instructions
system.cpu0.iew.iewDispNonSpecInsts             26528                       # Number of dispatched non-speculative instructions
system.cpu0.iew.iewIQFullEvents                   867                       # Number of times the IQ has become full, causing a stall
system.cpu0.iew.iewLSQFullEvents                 1596                       # Number of times the LSQ has become full, causing a stall
system.cpu0.iew.memOrderViolationEvents          5636                       # Number of memory order violations
system.cpu0.iew.predictedTakenIncorrect        734363                       # Number of branches that were predicted taken incorrectly
system.cpu0.iew.predictedNotTakenIncorrect       726135                       # Number of branches that were predicted not taken incorrectly
system.cpu0.iew.branchMispredicts             1460498                       # Number of branch mispredicts detected at execute
system.cpu0.iew.iewExecutedInsts            349797590                       # Number of executed instructions
system.cpu0.iew.iewExecLoadInsts             47073256                       # Number of load instructions executed
system.cpu0.iew.iewExecSquashedInsts           424986                       # Number of squashed instructions skipped in execute
system.cpu0.iew.exec_swp                            0                       # number of swp insts executed
system.cpu0.iew.exec_nop                           59                       # number of nop insts executed
system.cpu0.iew.exec_refs                    75378504                       # number of memory reference insts executed
system.cpu0.iew.exec_branches                53487792                       # Number of branches executed
system.cpu0.iew.exec_stores                  28305248                       # Number of stores executed
system.cpu0.iew.exec_rate                    1.184414                       # Inst execution rate
system.cpu0.iew.wb_sent                     349108647                       # cumulative count of insts sent to commit
system.cpu0.iew.wb_count                    349043083                       # cumulative count of insts written-back
system.cpu0.iew.wb_producers                259141550                       # num instructions producing a value
system.cpu0.iew.wb_consumers                615441816                       # num instructions consuming a value
system.cpu0.iew.wb_rate                      1.181860                       # insts written-back per cycle
system.cpu0.iew.wb_fanout                    0.421066                       # average fanout of values written-back
system.cpu0.commit.commitSquashedInsts       43772344                       # The number of squashed insts skipped by commit
system.cpu0.commit.commitNonSpecStalls          56150                       # The number of times commit has been forced to stall to communicate backwards
system.cpu0.commit.branchMispredicts          1375528                       # The number of times a branch was mispredicted
system.cpu0.commit.committed_per_cycle::samples    289035149                       # Number of insts commited each cycle
system.cpu0.commit.committed_per_cycle::mean     1.189874                       # Number of insts commited each cycle
system.cpu0.commit.committed_per_cycle::stdev     1.038477                       # Number of insts commited each cycle
system.cpu0.commit.committed_per_cycle::underflows            0      0.00%      0.00% # Number of insts commited each cycle
system.cpu0.commit.committed_per_cycle::0     32897814     11.38%     11.38% # Number of insts commited each cycle
system.cpu0.commit.committed_per_cycle::1    212127014     73.39%     84.77% # Number of insts commited each cycle
system.cpu0.commit.committed_per_cycle::2     26380194      9.13%     93.90% # Number of insts commited each cycle
system.cpu0.commit.committed_per_cycle::3      7829590      2.71%     96.61% # Number of insts commited each cycle
system.cpu0.commit.committed_per_cycle::4      3379534      1.17%     97.78% # Number of insts commited each cycle
system.cpu0.commit.committed_per_cycle::5       693018      0.24%     98.02% # Number of insts commited each cycle
system.cpu0.commit.committed_per_cycle::6      1918827      0.66%     98.68% # Number of insts commited each cycle
system.cpu0.commit.committed_per_cycle::7      3430302      1.19%     99.87% # Number of insts commited each cycle
system.cpu0.commit.committed_per_cycle::8       378856      0.13%    100.00% # Number of insts commited each cycle
system.cpu0.commit.committed_per_cycle::overflows            0      0.00%    100.00% # Number of insts commited each cycle
system.cpu0.commit.committed_per_cycle::min_value            0                       # Number of insts commited each cycle
system.cpu0.commit.committed_per_cycle::max_value            8                       # Number of insts commited each cycle
system.cpu0.commit.committed_per_cycle::total    289035149                       # Number of insts commited each cycle
system.cpu0.commit.committedInsts           304188997                       # Number of instructions committed
system.cpu0.commit.committedOps             343915322                       # Number of ops (including micro ops) committed
system.cpu0.commit.swp_count                        0                       # Number of s/w prefetches committed
system.cpu0.commit.refs                      72982609                       # Number of memory references committed
system.cpu0.commit.loads                     45173574                       # Number of loads committed
system.cpu0.commit.membars                      30443                       # Number of memory barriers committed
system.cpu0.commit.branches                  52971439                       # Number of branches committed
system.cpu0.commit.fp_insts                        16                       # Number of committed floating point instructions.
system.cpu0.commit.int_insts                313674643                       # Number of committed integer instructions.
system.cpu0.commit.function_calls             9531036                       # Number of function calls committed.
system.cpu0.commit.op_class_0::No_OpClass            0      0.00%      0.00% # Class of committed instruction
system.cpu0.commit.op_class_0::IntAlu       269003001     78.22%     78.22% # Class of committed instruction
system.cpu0.commit.op_class_0::IntMult        1902186      0.55%     78.77% # Class of committed instruction
system.cpu0.commit.op_class_0::IntDiv               0      0.00%     78.77% # Class of committed instruction
system.cpu0.commit.op_class_0::FloatAdd             0      0.00%     78.77% # Class of committed instruction
system.cpu0.commit.op_class_0::FloatCmp             0      0.00%     78.77% # Class of committed instruction
system.cpu0.commit.op_class_0::FloatCvt             0      0.00%     78.77% # Class of committed instruction
system.cpu0.commit.op_class_0::FloatMult            0      0.00%     78.77% # Class of committed instruction
system.cpu0.commit.op_class_0::FloatMultAcc            0      0.00%     78.77% # Class of committed instruction
system.cpu0.commit.op_class_0::FloatDiv             0      0.00%     78.77% # Class of committed instruction
system.cpu0.commit.op_class_0::FloatMisc            0      0.00%     78.77% # Class of committed instruction
system.cpu0.commit.op_class_0::FloatSqrt            0      0.00%     78.77% # Class of committed instruction
system.cpu0.commit.op_class_0::SimdAdd              0      0.00%     78.77% # Class of committed instruction
system.cpu0.commit.op_class_0::SimdAddAcc            0      0.00%     78.77% # Class of committed instruction
system.cpu0.commit.op_class_0::SimdAlu              0      0.00%     78.77% # Class of committed instruction
system.cpu0.commit.op_class_0::SimdCmp              0      0.00%     78.77% # Class of committed instruction
system.cpu0.commit.op_class_0::SimdCvt              0      0.00%     78.77% # Class of committed instruction
system.cpu0.commit.op_class_0::SimdMisc             0      0.00%     78.77% # Class of committed instruction
system.cpu0.commit.op_class_0::SimdMult             0      0.00%     78.77% # Class of committed instruction
system.cpu0.commit.op_class_0::SimdMultAcc            0      0.00%     78.77% # Class of committed instruction
system.cpu0.commit.op_class_0::SimdShift            0      0.00%     78.77% # Class of committed instruction
system.cpu0.commit.op_class_0::SimdShiftAcc            0      0.00%     78.77% # Class of committed instruction
system.cpu0.commit.op_class_0::SimdSqrt             0      0.00%     78.77% # Class of committed instruction
system.cpu0.commit.op_class_0::SimdFloatAdd            0      0.00%     78.77% # Class of committed instruction
system.cpu0.commit.op_class_0::SimdFloatAlu            0      0.00%     78.77% # Class of committed instruction
system.cpu0.commit.op_class_0::SimdFloatCmp            0      0.00%     78.77% # Class of committed instruction
system.cpu0.commit.op_class_0::SimdFloatCvt            0      0.00%     78.77% # Class of committed instruction
system.cpu0.commit.op_class_0::SimdFloatDiv            0      0.00%     78.77% # Class of committed instruction
system.cpu0.commit.op_class_0::SimdFloatMisc        27526      0.01%     78.78% # Class of committed instruction
system.cpu0.commit.op_class_0::SimdFloatMult            0      0.00%     78.78% # Class of committed instruction
system.cpu0.commit.op_class_0::SimdFloatMultAcc            0      0.00%     78.78% # Class of committed instruction
system.cpu0.commit.op_class_0::SimdFloatSqrt            0      0.00%     78.78% # Class of committed instruction
system.cpu0.commit.op_class_0::MemRead       45173574     13.14%     91.91% # Class of committed instruction
system.cpu0.commit.op_class_0::MemWrite      27809019      8.09%    100.00% # Class of committed instruction
system.cpu0.commit.op_class_0::FloatMemRead            0      0.00%    100.00% # Class of committed instruction
system.cpu0.commit.op_class_0::FloatMemWrite           16      0.00%    100.00% # Class of committed instruction
system.cpu0.commit.op_class_0::IprAccess            0      0.00%    100.00% # Class of committed instruction
system.cpu0.commit.op_class_0::InstPrefetch            0      0.00%    100.00% # Class of committed instruction
system.cpu0.commit.op_class_0::total        343915322                       # Class of committed instruction
system.cpu0.commit.bw_lim_events               378856                       # number cycles where commit BW limit reached
system.cpu0.rob.rob_reads                   676275269                       # The number of ROB reads
system.cpu0.rob.rob_writes                  781426546                       # The number of ROB writes
system.cpu0.timesIdled                          14671                       # Number of times that the entire CPU went into an idle state and unscheduled itself
system.cpu0.idleCycles                         248016                       # Total number of cycles that the CPU has spent unscheduled due to idling
system.cpu0.committedInsts                  304188997                       # Number of Instructions Simulated
system.cpu0.committedOps                    343915322                       # Number of Ops (including micro ops) Simulated
system.cpu0.cpi                              0.970889                       # CPI: Cycles Per Instruction
system.cpu0.cpi_total                        0.970889                       # CPI: Total CPI of All Threads
system.cpu0.ipc                              1.029984                       # IPC: Instructions Per Cycle
system.cpu0.ipc_total                        1.029984                       # IPC: Total IPC of All Threads
system.cpu0.int_regfile_reads               414305315                       # number of integer regfile reads
system.cpu0.int_regfile_writes              248820841                       # number of integer regfile writes
system.cpu0.fp_regfile_reads                      176                       # number of floating regfile reads
system.cpu0.cc_regfile_reads               1202133001                       # number of cc regfile reads
system.cpu0.cc_regfile_writes               180112279                       # number of cc regfile writes
system.cpu0.misc_regfile_reads               74205406                       # number of misc regfile reads
system.cpu0.misc_regfile_writes                 40884                       # number of misc regfile writes
system.cpu0.dcache.tags.pwrStateResidencyTicks::UNDEFINED 295333783000                       # Cumulative time (in ticks) in various power states
system.cpu0.dcache.tags.replacements            14264                       # number of replacements
system.cpu0.dcache.tags.tagsinuse          251.811504                       # Cycle average of tags in use
system.cpu0.dcache.tags.total_refs           65650262                       # Total number of references to valid blocks.
system.cpu0.dcache.tags.sampled_refs            14519                       # Sample count of references to valid blocks.
system.cpu0.dcache.tags.avg_refs          4521.679317                       # Average number of references to valid blocks.
system.cpu0.dcache.tags.warmup_cycle      11921722500                       # Cycle when the warmup percentage was hit.
system.cpu0.dcache.tags.occ_blocks::cpu0.data   251.811504                       # Average occupied blocks per requestor
system.cpu0.dcache.tags.occ_percent::cpu0.data     0.983639                       # Average percentage of cache occupancy
system.cpu0.dcache.tags.occ_percent::total     0.983639                       # Average percentage of cache occupancy
system.cpu0.dcache.tags.occ_task_id_blocks::1024          255                       # Occupied blocks per task id
system.cpu0.dcache.tags.age_task_id_blocks_1024::0           25                       # Occupied blocks per task id
system.cpu0.dcache.tags.age_task_id_blocks_1024::1           51                       # Occupied blocks per task id
system.cpu0.dcache.tags.age_task_id_blocks_1024::2           78                       # Occupied blocks per task id
system.cpu0.dcache.tags.age_task_id_blocks_1024::3           77                       # Occupied blocks per task id
system.cpu0.dcache.tags.age_task_id_blocks_1024::4           24                       # Occupied blocks per task id
system.cpu0.dcache.tags.occ_task_id_percent::1024     0.996094                       # Percentage of cache occupancy per task id
system.cpu0.dcache.tags.tag_accesses        262714961                       # Number of tag accesses
system.cpu0.dcache.tags.data_accesses       262714961                       # Number of data accesses
system.cpu0.dcache.pwrStateResidencyTicks::UNDEFINED 295333783000                       # Cumulative time (in ticks) in various power states
system.cpu0.dcache.ReadReq_hits::cpu0.data     37989577                       # number of ReadReq hits
system.cpu0.dcache.ReadReq_hits::total       37989577                       # number of ReadReq hits
system.cpu0.dcache.WriteReq_hits::cpu0.data     27619473                       # number of WriteReq hits
system.cpu0.dcache.WriteReq_hits::total      27619473                       # number of WriteReq hits
system.cpu0.dcache.LoadLockedReq_hits::cpu0.data        20395                       # number of LoadLockedReq hits
system.cpu0.dcache.LoadLockedReq_hits::total        20395                       # number of LoadLockedReq hits
system.cpu0.dcache.StoreCondReq_hits::cpu0.data        19857                       # number of StoreCondReq hits
system.cpu0.dcache.StoreCondReq_hits::total        19857                       # number of StoreCondReq hits
system.cpu0.dcache.demand_hits::cpu0.data     65609050                       # number of demand (read+write) hits
system.cpu0.dcache.demand_hits::total        65609050                       # number of demand (read+write) hits
system.cpu0.dcache.overall_hits::cpu0.data     65609050                       # number of overall hits
system.cpu0.dcache.overall_hits::total       65609050                       # number of overall hits
system.cpu0.dcache.ReadReq_misses::cpu0.data        10816                       # number of ReadReq misses
system.cpu0.dcache.ReadReq_misses::total        10816                       # number of ReadReq misses
system.cpu0.dcache.WriteReq_misses::cpu0.data        14249                       # number of WriteReq misses
system.cpu0.dcache.WriteReq_misses::total        14249                       # number of WriteReq misses
system.cpu0.dcache.LoadLockedReq_misses::cpu0.data           69                       # number of LoadLockedReq misses
system.cpu0.dcache.LoadLockedReq_misses::total           69                       # number of LoadLockedReq misses
system.cpu0.dcache.StoreCondReq_misses::cpu0.data          540                       # number of StoreCondReq misses
system.cpu0.dcache.StoreCondReq_misses::total          540                       # number of StoreCondReq misses
system.cpu0.dcache.demand_misses::cpu0.data        25065                       # number of demand (read+write) misses
system.cpu0.dcache.demand_misses::total         25065                       # number of demand (read+write) misses
system.cpu0.dcache.overall_misses::cpu0.data        25065                       # number of overall misses
system.cpu0.dcache.overall_misses::total        25065                       # number of overall misses
system.cpu0.dcache.ReadReq_miss_latency::cpu0.data    421531000                       # number of ReadReq miss cycles
system.cpu0.dcache.ReadReq_miss_latency::total    421531000                       # number of ReadReq miss cycles
system.cpu0.dcache.WriteReq_miss_latency::cpu0.data    485397148                       # number of WriteReq miss cycles
system.cpu0.dcache.WriteReq_miss_latency::total    485397148                       # number of WriteReq miss cycles
system.cpu0.dcache.LoadLockedReq_miss_latency::cpu0.data      1639000                       # number of LoadLockedReq miss cycles
system.cpu0.dcache.LoadLockedReq_miss_latency::total      1639000                       # number of LoadLockedReq miss cycles
system.cpu0.dcache.StoreCondReq_miss_latency::cpu0.data      7146000                       # number of StoreCondReq miss cycles
system.cpu0.dcache.StoreCondReq_miss_latency::total      7146000                       # number of StoreCondReq miss cycles
system.cpu0.dcache.StoreCondFailReq_miss_latency::cpu0.data        30000                       # number of StoreCondFailReq miss cycles
system.cpu0.dcache.StoreCondFailReq_miss_latency::total        30000                       # number of StoreCondFailReq miss cycles
system.cpu0.dcache.demand_miss_latency::cpu0.data    906928148                       # number of demand (read+write) miss cycles
system.cpu0.dcache.demand_miss_latency::total    906928148                       # number of demand (read+write) miss cycles
system.cpu0.dcache.overall_miss_latency::cpu0.data    906928148                       # number of overall miss cycles
system.cpu0.dcache.overall_miss_latency::total    906928148                       # number of overall miss cycles
system.cpu0.dcache.ReadReq_accesses::cpu0.data     38000393                       # number of ReadReq accesses(hits+misses)
system.cpu0.dcache.ReadReq_accesses::total     38000393                       # number of ReadReq accesses(hits+misses)
system.cpu0.dcache.WriteReq_accesses::cpu0.data     27633722                       # number of WriteReq accesses(hits+misses)
system.cpu0.dcache.WriteReq_accesses::total     27633722                       # number of WriteReq accesses(hits+misses)
system.cpu0.dcache.LoadLockedReq_accesses::cpu0.data        20464                       # number of LoadLockedReq accesses(hits+misses)
system.cpu0.dcache.LoadLockedReq_accesses::total        20464                       # number of LoadLockedReq accesses(hits+misses)
system.cpu0.dcache.StoreCondReq_accesses::cpu0.data        20397                       # number of StoreCondReq accesses(hits+misses)
system.cpu0.dcache.StoreCondReq_accesses::total        20397                       # number of StoreCondReq accesses(hits+misses)
system.cpu0.dcache.demand_accesses::cpu0.data     65634115                       # number of demand (read+write) accesses
system.cpu0.dcache.demand_accesses::total     65634115                       # number of demand (read+write) accesses
system.cpu0.dcache.overall_accesses::cpu0.data     65634115                       # number of overall (read+write) accesses
system.cpu0.dcache.overall_accesses::total     65634115                       # number of overall (read+write) accesses
system.cpu0.dcache.ReadReq_miss_rate::cpu0.data     0.000285                       # miss rate for ReadReq accesses
system.cpu0.dcache.ReadReq_miss_rate::total     0.000285                       # miss rate for ReadReq accesses
system.cpu0.dcache.WriteReq_miss_rate::cpu0.data     0.000516                       # miss rate for WriteReq accesses
system.cpu0.dcache.WriteReq_miss_rate::total     0.000516                       # miss rate for WriteReq accesses
system.cpu0.dcache.LoadLockedReq_miss_rate::cpu0.data     0.003372                       # miss rate for LoadLockedReq accesses
system.cpu0.dcache.LoadLockedReq_miss_rate::total     0.003372                       # miss rate for LoadLockedReq accesses
system.cpu0.dcache.StoreCondReq_miss_rate::cpu0.data     0.026474                       # miss rate for StoreCondReq accesses
system.cpu0.dcache.StoreCondReq_miss_rate::total     0.026474                       # miss rate for StoreCondReq accesses
system.cpu0.dcache.demand_miss_rate::cpu0.data     0.000382                       # miss rate for demand accesses
system.cpu0.dcache.demand_miss_rate::total     0.000382                       # miss rate for demand accesses
system.cpu0.dcache.overall_miss_rate::cpu0.data     0.000382                       # miss rate for overall accesses
system.cpu0.dcache.overall_miss_rate::total     0.000382                       # miss rate for overall accesses
system.cpu0.dcache.ReadReq_avg_miss_latency::cpu0.data 38972.910503                       # average ReadReq miss latency
system.cpu0.dcache.ReadReq_avg_miss_latency::total 38972.910503                       # average ReadReq miss latency
system.cpu0.dcache.WriteReq_avg_miss_latency::cpu0.data 34065.348305                       # average WriteReq miss latency
system.cpu0.dcache.WriteReq_avg_miss_latency::total 34065.348305                       # average WriteReq miss latency
system.cpu0.dcache.LoadLockedReq_avg_miss_latency::cpu0.data 23753.623188                       # average LoadLockedReq miss latency
system.cpu0.dcache.LoadLockedReq_avg_miss_latency::total 23753.623188                       # average LoadLockedReq miss latency
system.cpu0.dcache.StoreCondReq_avg_miss_latency::cpu0.data 13233.333333                       # average StoreCondReq miss latency
system.cpu0.dcache.StoreCondReq_avg_miss_latency::total 13233.333333                       # average StoreCondReq miss latency
system.cpu0.dcache.StoreCondFailReq_avg_miss_latency::cpu0.data          inf                       # average StoreCondFailReq miss latency
system.cpu0.dcache.StoreCondFailReq_avg_miss_latency::total          inf                       # average StoreCondFailReq miss latency
system.cpu0.dcache.demand_avg_miss_latency::cpu0.data 36183.049990                       # average overall miss latency
system.cpu0.dcache.demand_avg_miss_latency::total 36183.049990                       # average overall miss latency
system.cpu0.dcache.overall_avg_miss_latency::cpu0.data 36183.049990                       # average overall miss latency
system.cpu0.dcache.overall_avg_miss_latency::total 36183.049990                       # average overall miss latency
system.cpu0.dcache.blocked_cycles::no_mshrs        11851                       # number of cycles access was blocked
system.cpu0.dcache.blocked_cycles::no_targets            0                       # number of cycles access was blocked
system.cpu0.dcache.blocked::no_mshrs              675                       # number of cycles access was blocked
system.cpu0.dcache.blocked::no_targets              0                       # number of cycles access was blocked
system.cpu0.dcache.avg_blocked_cycles::no_mshrs    17.557037                       # average number of cycles each access was blocked
system.cpu0.dcache.avg_blocked_cycles::no_targets          nan                       # average number of cycles each access was blocked
system.cpu0.dcache.writebacks::writebacks         9734                       # number of writebacks
system.cpu0.dcache.writebacks::total             9734                       # number of writebacks
system.cpu0.dcache.ReadReq_mshr_hits::cpu0.data         4920                       # number of ReadReq MSHR hits
system.cpu0.dcache.ReadReq_mshr_hits::total         4920                       # number of ReadReq MSHR hits
system.cpu0.dcache.WriteReq_mshr_hits::cpu0.data         4893                       # number of WriteReq MSHR hits
system.cpu0.dcache.WriteReq_mshr_hits::total         4893                       # number of WriteReq MSHR hits
system.cpu0.dcache.LoadLockedReq_mshr_hits::cpu0.data           55                       # number of LoadLockedReq MSHR hits
system.cpu0.dcache.LoadLockedReq_mshr_hits::total           55                       # number of LoadLockedReq MSHR hits
system.cpu0.dcache.demand_mshr_hits::cpu0.data         9813                       # number of demand (read+write) MSHR hits
system.cpu0.dcache.demand_mshr_hits::total         9813                       # number of demand (read+write) MSHR hits
system.cpu0.dcache.overall_mshr_hits::cpu0.data         9813                       # number of overall MSHR hits
system.cpu0.dcache.overall_mshr_hits::total         9813                       # number of overall MSHR hits
system.cpu0.dcache.ReadReq_mshr_misses::cpu0.data         5896                       # number of ReadReq MSHR misses
system.cpu0.dcache.ReadReq_mshr_misses::total         5896                       # number of ReadReq MSHR misses
system.cpu0.dcache.WriteReq_mshr_misses::cpu0.data         9356                       # number of WriteReq MSHR misses
system.cpu0.dcache.WriteReq_mshr_misses::total         9356                       # number of WriteReq MSHR misses
system.cpu0.dcache.LoadLockedReq_mshr_misses::cpu0.data           14                       # number of LoadLockedReq MSHR misses
system.cpu0.dcache.LoadLockedReq_mshr_misses::total           14                       # number of LoadLockedReq MSHR misses
system.cpu0.dcache.StoreCondReq_mshr_misses::cpu0.data          540                       # number of StoreCondReq MSHR misses
system.cpu0.dcache.StoreCondReq_mshr_misses::total          540                       # number of StoreCondReq MSHR misses
system.cpu0.dcache.demand_mshr_misses::cpu0.data        15252                       # number of demand (read+write) MSHR misses
system.cpu0.dcache.demand_mshr_misses::total        15252                       # number of demand (read+write) MSHR misses
system.cpu0.dcache.overall_mshr_misses::cpu0.data        15252                       # number of overall MSHR misses
system.cpu0.dcache.overall_mshr_misses::total        15252                       # number of overall MSHR misses
system.cpu0.dcache.ReadReq_mshr_miss_latency::cpu0.data    225853500                       # number of ReadReq MSHR miss cycles
system.cpu0.dcache.ReadReq_mshr_miss_latency::total    225853500                       # number of ReadReq MSHR miss cycles
system.cpu0.dcache.WriteReq_mshr_miss_latency::cpu0.data    256960799                       # number of WriteReq MSHR miss cycles
system.cpu0.dcache.WriteReq_mshr_miss_latency::total    256960799                       # number of WriteReq MSHR miss cycles
system.cpu0.dcache.LoadLockedReq_mshr_miss_latency::cpu0.data       402500                       # number of LoadLockedReq MSHR miss cycles
system.cpu0.dcache.LoadLockedReq_mshr_miss_latency::total       402500                       # number of LoadLockedReq MSHR miss cycles
system.cpu0.dcache.StoreCondReq_mshr_miss_latency::cpu0.data      6069500                       # number of StoreCondReq MSHR miss cycles
system.cpu0.dcache.StoreCondReq_mshr_miss_latency::total      6069500                       # number of StoreCondReq MSHR miss cycles
system.cpu0.dcache.StoreCondFailReq_mshr_miss_latency::cpu0.data        25500                       # number of StoreCondFailReq MSHR miss cycles
system.cpu0.dcache.StoreCondFailReq_mshr_miss_latency::total        25500                       # number of StoreCondFailReq MSHR miss cycles
system.cpu0.dcache.demand_mshr_miss_latency::cpu0.data    482814299                       # number of demand (read+write) MSHR miss cycles
system.cpu0.dcache.demand_mshr_miss_latency::total    482814299                       # number of demand (read+write) MSHR miss cycles
system.cpu0.dcache.overall_mshr_miss_latency::cpu0.data    482814299                       # number of overall MSHR miss cycles
system.cpu0.dcache.overall_mshr_miss_latency::total    482814299                       # number of overall MSHR miss cycles
system.cpu0.dcache.ReadReq_mshr_miss_rate::cpu0.data     0.000155                       # mshr miss rate for ReadReq accesses
system.cpu0.dcache.ReadReq_mshr_miss_rate::total     0.000155                       # mshr miss rate for ReadReq accesses
system.cpu0.dcache.WriteReq_mshr_miss_rate::cpu0.data     0.000339                       # mshr miss rate for WriteReq accesses
system.cpu0.dcache.WriteReq_mshr_miss_rate::total     0.000339                       # mshr miss rate for WriteReq accesses
system.cpu0.dcache.LoadLockedReq_mshr_miss_rate::cpu0.data     0.000684                       # mshr miss rate for LoadLockedReq accesses
system.cpu0.dcache.LoadLockedReq_mshr_miss_rate::total     0.000684                       # mshr miss rate for LoadLockedReq accesses
system.cpu0.dcache.StoreCondReq_mshr_miss_rate::cpu0.data     0.026474                       # mshr miss rate for StoreCondReq accesses
system.cpu0.dcache.StoreCondReq_mshr_miss_rate::total     0.026474                       # mshr miss rate for StoreCondReq accesses
system.cpu0.dcache.demand_mshr_miss_rate::cpu0.data     0.000232                       # mshr miss rate for demand accesses
system.cpu0.dcache.demand_mshr_miss_rate::total     0.000232                       # mshr miss rate for demand accesses
system.cpu0.dcache.overall_mshr_miss_rate::cpu0.data     0.000232                       # mshr miss rate for overall accesses
system.cpu0.dcache.overall_mshr_miss_rate::total     0.000232                       # mshr miss rate for overall accesses
system.cpu0.dcache.ReadReq_avg_mshr_miss_latency::cpu0.data 38306.224559                       # average ReadReq mshr miss latency
system.cpu0.dcache.ReadReq_avg_mshr_miss_latency::total 38306.224559                       # average ReadReq mshr miss latency
system.cpu0.dcache.WriteReq_avg_mshr_miss_latency::cpu0.data 27464.813916                       # average WriteReq mshr miss latency
system.cpu0.dcache.WriteReq_avg_mshr_miss_latency::total 27464.813916                       # average WriteReq mshr miss latency
system.cpu0.dcache.LoadLockedReq_avg_mshr_miss_latency::cpu0.data        28750                       # average LoadLockedReq mshr miss latency
system.cpu0.dcache.LoadLockedReq_avg_mshr_miss_latency::total        28750                       # average LoadLockedReq mshr miss latency
system.cpu0.dcache.StoreCondReq_avg_mshr_miss_latency::cpu0.data 11239.814815                       # average StoreCondReq mshr miss latency
system.cpu0.dcache.StoreCondReq_avg_mshr_miss_latency::total 11239.814815                       # average StoreCondReq mshr miss latency
system.cpu0.dcache.StoreCondFailReq_avg_mshr_miss_latency::cpu0.data          inf                       # average StoreCondFailReq mshr miss latency
system.cpu0.dcache.StoreCondFailReq_avg_mshr_miss_latency::total          inf                       # average StoreCondFailReq mshr miss latency
system.cpu0.dcache.demand_avg_mshr_miss_latency::cpu0.data 31655.802452                       # average overall mshr miss latency
system.cpu0.dcache.demand_avg_mshr_miss_latency::total 31655.802452                       # average overall mshr miss latency
system.cpu0.dcache.overall_avg_mshr_miss_latency::cpu0.data 31655.802452                       # average overall mshr miss latency
system.cpu0.dcache.overall_avg_mshr_miss_latency::total 31655.802452                       # average overall mshr miss latency
system.cpu0.icache.tags.pwrStateResidencyTicks::UNDEFINED 295333783000                       # Cumulative time (in ticks) in various power states
system.cpu0.icache.tags.replacements           515082                       # number of replacements
system.cpu0.icache.tags.tagsinuse          255.990522                       # Cycle average of tags in use
system.cpu0.icache.tags.total_refs           49135988                       # Total number of references to valid blocks.
system.cpu0.icache.tags.sampled_refs           515338                       # Sample count of references to valid blocks.
system.cpu0.icache.tags.avg_refs            95.347108                       # Average number of references to valid blocks.
system.cpu0.icache.tags.warmup_cycle         43061500                       # Cycle when the warmup percentage was hit.
system.cpu0.icache.tags.occ_blocks::cpu0.inst   255.990522                       # Average occupied blocks per requestor
system.cpu0.icache.tags.occ_percent::cpu0.inst     0.999963                       # Average percentage of cache occupancy
system.cpu0.icache.tags.occ_percent::total     0.999963                       # Average percentage of cache occupancy
system.cpu0.icache.tags.occ_task_id_blocks::1024          256                       # Occupied blocks per task id
system.cpu0.icache.tags.age_task_id_blocks_1024::0           97                       # Occupied blocks per task id
system.cpu0.icache.tags.age_task_id_blocks_1024::1          132                       # Occupied blocks per task id
system.cpu0.icache.tags.age_task_id_blocks_1024::2           24                       # Occupied blocks per task id
system.cpu0.icache.tags.age_task_id_blocks_1024::4            3                       # Occupied blocks per task id
system.cpu0.icache.tags.occ_task_id_percent::1024            1                       # Percentage of cache occupancy per task id
system.cpu0.icache.tags.tag_accesses        199145694                       # Number of tag accesses
system.cpu0.icache.tags.data_accesses       199145694                       # Number of data accesses
system.cpu0.icache.pwrStateResidencyTicks::UNDEFINED 295333783000                       # Cumulative time (in ticks) in various power states
system.cpu0.icache.ReadReq_hits::cpu0.inst     49135988                       # number of ReadReq hits
system.cpu0.icache.ReadReq_hits::total       49135988                       # number of ReadReq hits
system.cpu0.icache.demand_hits::cpu0.inst     49135988                       # number of demand (read+write) hits
system.cpu0.icache.demand_hits::total        49135988                       # number of demand (read+write) hits
system.cpu0.icache.overall_hits::cpu0.inst     49135988                       # number of overall hits
system.cpu0.icache.overall_hits::total       49135988                       # number of overall hits
system.cpu0.icache.ReadReq_misses::cpu0.inst       521601                       # number of ReadReq misses
system.cpu0.icache.ReadReq_misses::total       521601                       # number of ReadReq misses
system.cpu0.icache.demand_misses::cpu0.inst       521601                       # number of demand (read+write) misses
system.cpu0.icache.demand_misses::total        521601                       # number of demand (read+write) misses
system.cpu0.icache.overall_misses::cpu0.inst       521601                       # number of overall misses
system.cpu0.icache.overall_misses::total       521601                       # number of overall misses
system.cpu0.icache.ReadReq_miss_latency::cpu0.inst   8612254000                       # number of ReadReq miss cycles
system.cpu0.icache.ReadReq_miss_latency::total   8612254000                       # number of ReadReq miss cycles
system.cpu0.icache.demand_miss_latency::cpu0.inst   8612254000                       # number of demand (read+write) miss cycles
system.cpu0.icache.demand_miss_latency::total   8612254000                       # number of demand (read+write) miss cycles
[...]
system.l2.ReadSharedReq_mshr_miss_latency::cpu1.data     81908000                       # number of ReadSharedReq MSHR miss cycles
system.l2.ReadSharedReq_mshr_miss_latency::total    231213500                       # number of ReadSharedReq MSHR miss cycles
system.l2.demand_mshr_miss_latency::cpu0.inst    494079000                       # number of demand (read+write) MSHR miss cycles
system.l2.demand_mshr_miss_latency::cpu0.data    286697500                       # number of demand (read+write) MSHR miss cycles
system.l2.demand_mshr_miss_latency::cpu1.inst    169777500                       # number of demand (read+write) MSHR miss cycles
system.l2.demand_mshr_miss_latency::cpu1.data    183813000                       # number of demand (read+write) MSHR miss cycles
system.l2.demand_mshr_miss_latency::total   1134367000                       # number of demand (read+write) MSHR miss cycles
system.l2.overall_mshr_miss_latency::cpu0.inst    494079000                       # number of overall MSHR miss cycles
system.l2.overall_mshr_miss_latency::cpu0.data    286697500                       # number of overall MSHR miss cycles
system.l2.overall_mshr_miss_latency::cpu1.inst    169777500                       # number of overall MSHR miss cycles
system.l2.overall_mshr_miss_latency::cpu1.data    183813000                       # number of overall MSHR miss cycles
system.l2.overall_mshr_miss_latency::total   1134367000                       # number of overall MSHR miss cycles
system.l2.CleanEvict_mshr_miss_rate::writebacks          inf                       # mshr miss rate for CleanEvict accesses
system.l2.CleanEvict_mshr_miss_rate::total          inf                       # mshr miss rate for CleanEvict accesses
system.l2.UpgradeReq_mshr_miss_rate::cpu0.data     0.157303                       # mshr miss rate for UpgradeReq accesses
system.l2.UpgradeReq_mshr_miss_rate::cpu1.data     0.100000                       # mshr miss rate for UpgradeReq accesses
system.l2.UpgradeReq_mshr_miss_rate::total     0.151515                       # mshr miss rate for UpgradeReq accesses
system.l2.SCUpgradeReq_mshr_miss_rate::cpu0.data     0.166667                       # mshr miss rate for SCUpgradeReq accesses
system.l2.SCUpgradeReq_mshr_miss_rate::cpu1.data     0.200000                       # mshr miss rate for SCUpgradeReq accesses
system.l2.SCUpgradeReq_mshr_miss_rate::total     0.167910                       # mshr miss rate for SCUpgradeReq accesses
system.l2.ReadExReq_mshr_miss_rate::cpu0.data     0.292887                       # mshr miss rate for ReadExReq accesses
system.l2.ReadExReq_mshr_miss_rate::cpu1.data     0.737729                       # mshr miss rate for ReadExReq accesses
system.l2.ReadExReq_mshr_miss_rate::total     0.393924                       # mshr miss rate for ReadExReq accesses
system.l2.ReadCleanReq_mshr_miss_rate::cpu0.inst     0.018710                       # mshr miss rate for ReadCleanReq accesses
system.l2.ReadCleanReq_mshr_miss_rate::cpu1.inst     0.012506                       # mshr miss rate for ReadCleanReq accesses
system.l2.ReadCleanReq_mshr_miss_rate::total     0.016619                       # mshr miss rate for ReadCleanReq accesses
system.l2.ReadSharedReq_mshr_miss_rate::cpu0.data     0.530683                       # mshr miss rate for ReadSharedReq accesses
system.l2.ReadSharedReq_mshr_miss_rate::cpu1.data     0.376375                       # mshr miss rate for ReadSharedReq accesses
system.l2.ReadSharedReq_mshr_miss_rate::total     0.463749                       # mshr miss rate for ReadSharedReq accesses
system.l2.demand_mshr_miss_rate::cpu0.inst     0.018710                       # mshr miss rate for demand accesses
system.l2.demand_mshr_miss_rate::cpu0.data     0.382161                       # mshr miss rate for demand accesses
system.l2.demand_mshr_miss_rate::cpu1.inst     0.012506                       # mshr miss rate for demand accesses
system.l2.demand_mshr_miss_rate::cpu1.data     0.517151                       # mshr miss rate for demand accesses
system.l2.demand_mshr_miss_rate::total       0.027568                       # mshr miss rate for demand accesses
system.l2.overall_mshr_miss_rate::cpu0.inst     0.018710                       # mshr miss rate for overall accesses
system.l2.overall_mshr_miss_rate::cpu0.data     0.382161                       # mshr miss rate for overall accesses
system.l2.overall_mshr_miss_rate::cpu1.inst     0.012506                       # mshr miss rate for overall accesses
system.l2.overall_mshr_miss_rate::cpu1.data     0.517151                       # mshr miss rate for overall accesses
system.l2.overall_mshr_miss_rate::total      0.027568                       # mshr miss rate for overall accesses
system.l2.UpgradeReq_avg_mshr_miss_latency::cpu0.data 21464.285714                       # average UpgradeReq mshr miss latency
system.l2.UpgradeReq_avg_mshr_miss_latency::cpu1.data        21500                       # average UpgradeReq mshr miss latency
system.l2.UpgradeReq_avg_mshr_miss_latency::total 21466.666667                       # average UpgradeReq mshr miss latency
system.l2.SCUpgradeReq_avg_mshr_miss_latency::cpu0.data 20988.372093                       # average SCUpgradeReq mshr miss latency
system.l2.SCUpgradeReq_avg_mshr_miss_latency::cpu1.data        20500                       # average SCUpgradeReq mshr miss latency
system.l2.SCUpgradeReq_avg_mshr_miss_latency::total 20966.666667                       # average SCUpgradeReq mshr miss latency
system.l2.ReadExReq_avg_mshr_miss_latency::cpu0.data 51651.127820                       # average ReadExReq mshr miss latency
system.l2.ReadExReq_avg_mshr_miss_latency::cpu1.data 51754.697816                       # average ReadExReq mshr miss latency
system.l2.ReadExReq_avg_mshr_miss_latency::total 51695.182545                       # average ReadExReq mshr miss latency
system.l2.ReadCleanReq_avg_mshr_miss_latency::cpu0.inst 51242.377100                       # average ReadCleanReq mshr miss latency
system.l2.ReadCleanReq_avg_mshr_miss_latency::cpu1.inst 51824.633700                       # average ReadCleanReq mshr miss latency
system.l2.ReadCleanReq_avg_mshr_miss_latency::total 51390.037157                       # average ReadCleanReq mshr miss latency
system.l2.ReadSharedReq_avg_mshr_miss_latency::cpu0.data 51537.970314                       # average ReadSharedReq mshr miss latency
system.l2.ReadSharedReq_avg_mshr_miss_latency::cpu1.data 52038.119441                       # average ReadSharedReq mshr miss latency
system.l2.ReadSharedReq_avg_mshr_miss_latency::total 51714.046075                       # average ReadSharedReq mshr miss latency
system.l2.demand_avg_mshr_miss_latency::cpu0.inst 51242.377100                       # average overall mshr miss latency
system.l2.demand_avg_mshr_miss_latency::cpu0.data 51592.136045                       # average overall mshr miss latency
system.l2.demand_avg_mshr_miss_latency::cpu1.inst 51824.633700                       # average overall mshr miss latency
system.l2.demand_avg_mshr_miss_latency::cpu1.data 51880.609653                       # average overall mshr miss latency
system.l2.demand_avg_mshr_miss_latency::total 51519.983650                       # average overall mshr miss latency
system.l2.overall_avg_mshr_miss_latency::cpu0.inst 51242.377100                       # average overall mshr miss latency
system.l2.overall_avg_mshr_miss_latency::cpu0.data 51592.136045                       # average overall mshr miss latency
system.l2.overall_avg_mshr_miss_latency::cpu1.inst 51824.633700                       # average overall mshr miss latency
system.l2.overall_avg_mshr_miss_latency::cpu1.data 51880.609653                       # average overall mshr miss latency
system.l2.overall_avg_mshr_miss_latency::total 51519.983650                       # average overall mshr miss latency
system.membus.snoop_filter.tot_requests         42477                       # Total number of requests made to the snoop filter.
system.membus.snoop_filter.hit_single_requests        21859                       # Number of requests hitting in the snoop filter with a single holder of the requested data.
system.membus.snoop_filter.hit_multi_requests            0                       # Number of requests hitting in the snoop filter with multiple (>1) holders of the requested data.
system.membus.snoop_filter.tot_snoops               0                       # Total number of snoops made to the snoop filter.
system.membus.snoop_filter.hit_single_snoops            0                       # Number of snoops hitting in the snoop filter with a single holder of the requested data.
system.membus.snoop_filter.hit_multi_snoops            0                       # Number of snoops hitting in the snoop filter with multiple (>1) holders of the requested data.
system.membus.pwrStateResidencyTicks::UNDEFINED 295333783000                       # Cumulative time (in ticks) in various power states
system.membus.trans_dist::ReadResp              17389                       # Transaction distribution
system.membus.trans_dist::WritebackDirty         4647                       # Transaction distribution
system.membus.trans_dist::CleanEvict            13230                       # Transaction distribution
system.membus.trans_dist::UpgradeReq              292                       # Transaction distribution
system.membus.trans_dist::SCUpgradeReq            631                       # Transaction distribution
system.membus.trans_dist::ReadExReq              4629                       # Transaction distribution
system.membus.trans_dist::ReadExResp             4629                       # Transaction distribution
system.membus.trans_dist::ReadSharedReq         17389                       # Transaction distribution
system.membus.pkt_count_system.l2.mem_side::system.physmem.port        62836                       # Packet count per connected master and slave (bytes)
system.membus.pkt_count::total                  62836                       # Packet count per connected master and slave (bytes)
system.membus.pkt_size_system.l2.mem_side::system.physmem.port      1706560                       # Cumulative packet size per connected master and slave (bytes)
system.membus.pkt_size::total                 1706560                       # Cumulative packet size per connected master and slave (bytes)
system.membus.snoops                              863                       # Total snoops (count)
system.membus.snoopTraffic                          0                       # Total snoop traffic (bytes)
system.membus.snoop_fanout::samples             24433                       # Request fanout histogram
system.membus.snoop_fanout::mean                    0                       # Request fanout histogram
system.membus.snoop_fanout::stdev                   0                       # Request fanout histogram
system.membus.snoop_fanout::underflows              0      0.00%      0.00% # Request fanout histogram
system.membus.snoop_fanout::0                   24433    100.00%    100.00% # Request fanout histogram
system.membus.snoop_fanout::1                       0      0.00%    100.00% # Request fanout histogram
system.membus.snoop_fanout::overflows               0      0.00%    100.00% # Request fanout histogram
system.membus.snoop_fanout::min_value               0                       # Request fanout histogram
system.membus.snoop_fanout::max_value               0                       # Request fanout histogram
system.membus.snoop_fanout::total               24433                       # Request fanout histogram
system.membus.reqLayer0.occupancy            74301013                       # Layer occupancy (ticks)
system.membus.reqLayer0.utilization               0.0                       # Layer utilization (%)
system.membus.respLayer1.occupancy          110090000                       # Layer occupancy (ticks)
system.membus.respLayer1.utilization              0.0                       # Layer utilization (%)
system.tol2bus.snoop_filter.tot_requests      1599032                       # Total number of requests made to the snoop filter.
system.tol2bus.snoop_filter.hit_single_requests       785995                       # Number of requests hitting in the snoop filter with a single holder of the requested data.
system.tol2bus.snoop_filter.hit_multi_requests       281765                       # Number of requests hitting in the snoop filter with multiple (>1) holders of the requested data.
system.tol2bus.snoop_filter.tot_snoops          12620                       # Total number of snoops made to the snoop filter.
system.tol2bus.snoop_filter.hit_single_snoops        10612                       # Number of snoops hitting in the snoop filter with a single holder of the requested data.
system.tol2bus.snoop_filter.hit_multi_snoops         2008                       # Number of snoops hitting in the snoop filter with multiple (>1) holders of the requested data.
system.tol2bus.pwrStateResidencyTicks::UNDEFINED 295333783000                       # Cumulative time (in ticks) in various power states
system.tol2bus.trans_dist::ReadResp            788197                       # Transaction distribution
system.tol2bus.trans_dist::WritebackDirty        17766                       # Transaction distribution
system.tol2bus.trans_dist::WritebackClean       776784                       # Transaction distribution
system.tol2bus.trans_dist::CleanEvict           31745                       # Transaction distribution
system.tol2bus.trans_dist::UpgradeReq             376                       # Transaction distribution
system.tol2bus.trans_dist::SCUpgradeReq           854                       # Transaction distribution
system.tol2bus.trans_dist::UpgradeResp           1230                       # Transaction distribution
system.tol2bus.trans_dist::SCUpgradeFailReq            2                       # Transaction distribution
system.tol2bus.trans_dist::UpgradeFailResp            2                       # Transaction distribution
system.tol2bus.trans_dist::ReadExReq            11890                       # Transaction distribution
system.tol2bus.trans_dist::ReadExResp           11890                       # Transaction distribution
system.tol2bus.trans_dist::ReadCleanReq        777296                       # Transaction distribution
system.tol2bus.trans_dist::ReadSharedReq        10901                       # Transaction distribution
system.tol2bus.pkt_count_system.cpu0.icache.mem_side::system.l2.cpu_side      1545758                       # Packet count per connected master and slave (bytes)
system.tol2bus.pkt_count_system.cpu0.dcache.mem_side::system.l2.cpu_side        44960                       # Packet count per connected master and slave (bytes)
system.tol2bus.pkt_count_system.cpu1.icache.mem_side::system.l2.cpu_side       785618                       # Packet count per connected master and slave (bytes)
system.tol2bus.pkt_count_system.cpu1.dcache.mem_side::system.l2.cpu_side        21751                       # Packet count per connected master and slave (bytes)
system.tol2bus.pkt_count::total               2398087                       # Packet count per connected master and slave (bytes)
system.tol2bus.pkt_size_system.cpu0.icache.mem_side::system.l2.cpu_side     65946880                       # Cumulative packet size per connected master and slave (bytes)
system.tol2bus.pkt_size_system.cpu0.dcache.mem_side::system.l2.cpu_side      1553600                       # Cumulative packet size per connected master and slave (bytes)
system.tol2bus.pkt_size_system.cpu1.icache.mem_side::system.l2.cpu_side     33514240                       # Cumulative packet size per connected master and slave (bytes)
system.tol2bus.pkt_size_system.cpu1.dcache.mem_side::system.l2.cpu_side       655104                       # Cumulative packet size per connected master and slave (bytes)
system.tol2bus.pkt_size::total              101669824                       # Cumulative packet size per connected master and slave (bytes)
system.tol2bus.snoops                           30846                       # Total snoops (count)
system.tol2bus.snoopTraffic                    387072                       # Total snoop traffic (bytes)
system.tol2bus.snoop_fanout::samples           829901                       # Request fanout histogram
system.tol2bus.snoop_fanout::mean            0.364100                       # Request fanout histogram
system.tol2bus.snoop_fanout::stdev           0.538233                       # Request fanout histogram
system.tol2bus.snoop_fanout::underflows             0      0.00%      0.00% # Request fanout histogram
system.tol2bus.snoop_fanout::0                 547246     65.94%     65.94% # Request fanout histogram
system.tol2bus.snoop_fanout::1                 267740     32.26%     98.20% # Request fanout histogram
system.tol2bus.snoop_fanout::2                  10344      1.25%     99.45% # Request fanout histogram
system.tol2bus.snoop_fanout::3                   4545      0.55%    100.00% # Request fanout histogram
system.tol2bus.snoop_fanout::4                     26      0.00%    100.00% # Request fanout histogram
system.tol2bus.snoop_fanout::5                      0      0.00%    100.00% # Request fanout histogram
system.tol2bus.snoop_fanout::6                      0      0.00%    100.00% # Request fanout histogram
system.tol2bus.snoop_fanout::7                      0      0.00%    100.00% # Request fanout histogram
system.tol2bus.snoop_fanout::8                      0      0.00%    100.00% # Request fanout histogram
system.tol2bus.snoop_fanout::9                      0      0.00%    100.00% # Request fanout histogram
system.tol2bus.snoop_fanout::10                     0      0.00%    100.00% # Request fanout histogram
system.tol2bus.snoop_fanout::11                     0      0.00%    100.00% # Request fanout histogram
system.tol2bus.snoop_fanout::12                     0      0.00%    100.00% # Request fanout histogram
system.tol2bus.snoop_fanout::13                     0      0.00%    100.00% # Request fanout histogram
system.tol2bus.snoop_fanout::14                     0      0.00%    100.00% # Request fanout histogram
system.tol2bus.snoop_fanout::15                     0      0.00%    100.00% # Request fanout histogram
system.tol2bus.snoop_fanout::16                     0      0.00%    100.00% # Request fanout histogram
system.tol2bus.snoop_fanout::overflows              0      0.00%    100.00% # Request fanout histogram
system.tol2bus.snoop_fanout::min_value              0                       # Request fanout histogram
system.tol2bus.snoop_fanout::max_value              4                       # Request fanout histogram
system.tol2bus.snoop_fanout::total             829901                       # Request fanout histogram
system.tol2bus.reqLayer0.occupancy         1589422992                       # Layer occupancy (ticks)
system.tol2bus.reqLayer0.utilization              0.5                       # Layer utilization (%)
system.tol2bus.respLayer0.occupancy         773238036                       # Layer occupancy (ticks)
system.tol2bus.respLayer0.utilization             0.3                       # Layer utilization (%)
system.tol2bus.respLayer1.occupancy          23037351                       # Layer occupancy (ticks)
system.tol2bus.respLayer1.utilization             0.0                       # Layer utilization (%)
system.tol2bus.respLayer4.occupancy         393129612                       # Layer occupancy (ticks)
system.tol2bus.respLayer4.utilization             0.1                       # Layer utilization (%)
system.tol2bus.respLayer5.occupancy          11885915                       # Layer occupancy (ticks)
system.tol2bus.respLayer5.utilization             0.0                       # Layer utilization (%)

---------- End Simulation Statistics   ----------
