
---------- Begin Simulation Statistics ----------
sim_seconds                                  0.084862                       # Number of seconds simulated
sim_ticks                                 84861904000                       # Number of ticks simulated
final_tick                                84861904000                       # Number of ticks from beginning of simulation (restored from checkpoints and never reset)
sim_freq                                 1000000000000                       # Frequency of simulated ticks
host_inst_rate                                 243606                       # Simulator instruction rate (inst/s)
host_op_rate                                   267472                       # Simulator op (including micro ops) rate (op/s)
host_tick_rate                               26659949                       # Simulator tick rate (ticks/s)
host_mem_usage                                 723344                       # Number of bytes of host memory used
host_seconds                                  3183.12                       # Real time elapsed on the host
sim_insts                                   775429358                       # Number of instructions simulated
sim_ops                                     851395684                       # Number of ops (including micro ops) simulated
system.voltage_domain.voltage                       1                       # Voltage in Volts
system.clk_domain.clock                          1000                       # Clock period in ticks
system.physmem.pwrStateResidencyTicks::UNDEFINED  84861904000                       # Cumulative time (in ticks) in various power states
system.physmem.bytes_read::cpu0.inst           315200                       # Number of bytes read from this memory
system.physmem.bytes_read::cpu0.data           170560                       # Number of bytes read from this memory
system.physmem.bytes_read::cpu1.inst           243712                       # Number of bytes read from this memory
system.physmem.bytes_read::cpu1.data            76352                       # Number of bytes read from this memory
system.physmem.bytes_read::cpu2.inst           257472                       # Number of bytes read from this memory
system.physmem.bytes_read::cpu2.data            68928                       # Number of bytes read from this memory
system.physmem.bytes_read::cpu3.inst           254592                       # Number of bytes read from this memory
system.physmem.bytes_read::cpu3.data            72448                       # Number of bytes read from this memory
system.physmem.bytes_read::cpu4.inst           243712                       # Number of bytes read from this memory
system.physmem.bytes_read::cpu4.data            67776                       # Number of bytes read from this memory
system.physmem.bytes_read::cpu5.inst           230464                       # Number of bytes read from this memory
system.physmem.bytes_read::cpu5.data            60544                       # Number of bytes read from this memory
system.physmem.bytes_read::cpu6.inst           236736                       # Number of bytes read from this memory
system.physmem.bytes_read::cpu6.data            57280                       # Number of bytes read from this memory
system.physmem.bytes_read::cpu7.inst           196864                       # Number of bytes read from this memory
system.physmem.bytes_read::cpu7.data            50496                       # Number of bytes read from this memory
system.physmem.bytes_read::total              2603136                       # Number of bytes read from this memory
system.physmem.bytes_inst_read::cpu0.inst       315200                       # Number of instructions bytes read from this memory
system.physmem.bytes_inst_read::cpu1.inst       243712                       # Number of instructions bytes read from this memory
system.physmem.bytes_inst_read::cpu2.inst       257472                       # Number of instructions bytes read from this memory
system.physmem.bytes_inst_read::cpu3.inst       254592                       # Number of instructions bytes read from this memory
system.physmem.bytes_inst_read::cpu4.inst       243712                       # Number of instructions bytes read from this memory
system.physmem.bytes_inst_read::cpu5.inst       230464                       # Number of instructions bytes read from this memory
system.physmem.bytes_inst_read::cpu6.inst       236736                       # Number of instructions bytes read from this memory
system.physmem.bytes_inst_read::cpu7.inst       196864                       # Number of instructions bytes read from this memory
system.physmem.bytes_inst_read::total         1978752                       # Number of instructions bytes read from this memory
system.physmem.bytes_written::writebacks       216960                       # Number of bytes written to this memory
system.physmem.bytes_written::total            216960                       # Number of bytes written to this memory
system.physmem.num_reads::cpu0.inst              4925                       # Number of read requests responded to by this memory
system.physmem.num_reads::cpu0.data              2665                       # Number of read requests responded to by this memory
system.physmem.num_reads::cpu1.inst              3808                       # Number of read requests responded to by this memory
system.physmem.num_reads::cpu1.data              1193                       # Number of read requests responded to by this memory
system.physmem.num_reads::cpu2.inst              4023                       # Number of read requests responded to by this memory
system.physmem.num_reads::cpu2.data              1077                       # Number of read requests responded to by this memory
system.physmem.num_reads::cpu3.inst              3978                       # Number of read requests responded to by this memory
system.physmem.num_reads::cpu3.data              1132                       # Number of read requests responded to by this memory
system.physmem.num_reads::cpu4.inst              3808                       # Number of read requests responded to by this memory
system.physmem.num_reads::cpu4.data              1059                       # Number of read requests responded to by this memory
system.physmem.num_reads::cpu5.inst              3601                       # Number of read requests responded to by this memory
system.physmem.num_reads::cpu5.data               946                       # Number of read requests responded to by this memory
system.physmem.num_reads::cpu6.inst              3699                       # Number of read requests responded to by this memory
system.physmem.num_reads::cpu6.data               895                       # Number of read requests responded to by this memory
system.physmem.num_reads::cpu7.inst              3076                       # Number of read requests responded to by this memory
system.physmem.num_reads::cpu7.data               789                       # Number of read requests responded to by this memory
system.physmem.num_reads::total                 40674                       # Number of read requests responded to by this memory
system.physmem.num_writes::writebacks            3390                       # Number of write requests responded to by this memory
system.physmem.num_writes::total                 3390                       # Number of write requests responded to by this memory
system.physmem.bw_read::cpu0.inst             3714270                       # Total read bandwidth from this memory (bytes/s)
system.physmem.bw_read::cpu0.data             2009854                       # Total read bandwidth from this memory (bytes/s)
system.physmem.bw_read::cpu1.inst             2871866                       # Total read bandwidth from this memory (bytes/s)
system.physmem.bw_read::cpu1.data              899721                       # Total read bandwidth from this memory (bytes/s)
system.physmem.bw_read::cpu2.inst             3034012                       # Total read bandwidth from this memory (bytes/s)
system.physmem.bw_read::cpu2.data              812237                       # Total read bandwidth from this memory (bytes/s)
system.physmem.bw_read::cpu3.inst             3000074                       # Total read bandwidth from this memory (bytes/s)
system.physmem.bw_read::cpu3.data              853716                       # Total read bandwidth from this memory (bytes/s)
system.physmem.bw_read::cpu4.inst             2871866                       # Total read bandwidth from this memory (bytes/s)
system.physmem.bw_read::cpu4.data              798662                       # Total read bandwidth from this memory (bytes/s)
system.physmem.bw_read::cpu5.inst             2715753                       # Total read bandwidth from this memory (bytes/s)
system.physmem.bw_read::cpu5.data              713441                       # Total read bandwidth from this memory (bytes/s)
system.physmem.bw_read::cpu6.inst             2789662                       # Total read bandwidth from this memory (bytes/s)
system.physmem.bw_read::cpu6.data              674979                       # Total read bandwidth from this memory (bytes/s)
system.physmem.bw_read::cpu7.inst             2319816                       # Total read bandwidth from this memory (bytes/s)
system.physmem.bw_read::cpu7.data              595037                       # Total read bandwidth from this memory (bytes/s)
system.physmem.bw_read::total                30674966                       # Total read bandwidth from this memory (bytes/s)
system.physmem.bw_inst_read::cpu0.inst        3714270                       # Instruction read bandwidth from this memory (bytes/s)
system.physmem.bw_inst_read::cpu1.inst        2871866                       # Instruction read bandwidth from this memory (bytes/s)
system.physmem.bw_inst_read::cpu2.inst        3034012                       # Instruction read bandwidth from this memory (bytes/s)
system.physmem.bw_inst_read::cpu3.inst        3000074                       # Instruction read bandwidth from this memory (bytes/s)
system.physmem.bw_inst_read::cpu4.inst        2871866                       # Instruction read bandwidth from this memory (bytes/s)
system.physmem.bw_inst_read::cpu5.inst        2715753                       # Instruction read bandwidth from this memory (bytes/s)
system.physmem.bw_inst_read::cpu6.inst        2789662                       # Instruction read bandwidth from this memory (bytes/s)
system.physmem.bw_inst_read::cpu7.inst        2319816                       # Instruction read bandwidth from this memory (bytes/s)
system.physmem.bw_inst_read::total           23317318                       # Instruction read bandwidth from this memory (bytes/s)
system.physmem.bw_write::writebacks           2556624                       # Write bandwidth from this memory (bytes/s)
system.physmem.bw_write::total                2556624                       # Write bandwidth from this memory (bytes/s)
system.physmem.bw_total::writebacks           2556624                       # Total bandwidth to/from this memory (bytes/s)
system.physmem.bw_total::cpu0.inst            3714270                       # Total bandwidth to/from this memory (bytes/s)
system.physmem.bw_total::cpu0.data            2009854                       # Total bandwidth to/from this memory (bytes/s)
system.physmem.bw_total::cpu1.inst            2871866                       # Total bandwidth to/from this memory (bytes/s)
system.physmem.bw_total::cpu1.data             899721                       # Total bandwidth to/from this memory (bytes/s)
system.physmem.bw_total::cpu2.inst            3034012                       # Total bandwidth to/from this memory (bytes/s)
system.physmem.bw_total::cpu2.data             812237                       # Total bandwidth to/from this memory (bytes/s)
system.physmem.bw_total::cpu3.inst            3000074                       # Total bandwidth to/from this memory (bytes/s)
system.physmem.bw_total::cpu3.data             853716                       # Total bandwidth to/from this memory (bytes/s)
system.physmem.bw_total::cpu4.inst            2871866                       # Total bandwidth to/from this memory (bytes/s)
system.physmem.bw_total::cpu4.data             798662                       # Total bandwidth to/from this memory (bytes/s)
system.physmem.bw_total::cpu5.inst            2715753                       # Total bandwidth to/from this memory (bytes/s)
system.physmem.bw_total::cpu5.data             713441                       # Total bandwidth to/from this memory (bytes/s)
system.physmem.bw_total::cpu6.inst            2789662                       # Total bandwidth to/from this memory (bytes/s)
system.physmem.bw_total::cpu6.data             674979                       # Total bandwidth to/from this memory (bytes/s)
system.physmem.bw_total::cpu7.inst            2319816                       # Total bandwidth to/from this memory (bytes/s)
system.physmem.bw_total::cpu7.data             595037                       # Total bandwidth to/from this memory (bytes/s)
system.physmem.bw_total::total               33231590                       # Total bandwidth to/from this memory (bytes/s)
system.pwrStateResidencyTicks::UNDEFINED  84861904000                       # Cumulative time (in ticks) in various power states
system.cpu0.branchPred.lookups               18686014                       # Number of BP lookups
system.cpu0.branchPred.condPredicted         11477811                       # Number of conditional branches predicted
system.cpu0.branchPred.condIncorrect           435934                       # Number of conditional branches incorrect
system.cpu0.branchPred.BTBLookups            10148238                       # Number of BTB lookups
system.cpu0.branchPred.BTBHits                8798196                       # Number of BTB hits
system.cpu0.branchPred.BTBCorrect                   0                       # Number of correct BTB predictions (this stat may not work properly.
system.cpu0.branchPred.BTBHitPct            86.696784                       # BTB Hit Percentage
system.cpu0.branchPred.usedRAS                2318538                       # Number of times the RAS was used to get a target.
system.cpu0.branchPred.RASInCorrect             40478                       # Number of incorrect RAS predictions.
system.cpu0.branchPred.indirectLookups         570994                       # Number of indirect predictor lookups.
system.cpu0.branchPred.indirectHits            566292                       # Number of indirect target hits.
system.cpu0.branchPred.indirectMisses            4702                       # Number of indirect misses.
system.cpu0.branchPredindirectMispredicted         9536                       # Number of mispredicted indirect branches.
system.cpu0.dstage2_mmu.stage2_tlb.walker.pwrStateResidencyTicks::UNDEFINED  84861904000                       # Cumulative time (in ticks) in various power states
system.cpu0.dstage2_mmu.stage2_tlb.walker.walks            0                       # Table walker walks requested
system.cpu0.dstage2_mmu.stage2_tlb.walker.walkRequestOrigin_Requested::Data            0                       # Table walker requests started/completed, data/inst
system.cpu0.dstage2_mmu.stage2_tlb.walker.walkRequestOrigin_Requested::Inst            0                       # Table walker requests started/completed, data/inst
system.cpu0.dstage2_mmu.stage2_tlb.walker.walkRequestOrigin_Requested::total            0                       # Table walker requests started/completed, data/inst
system.cpu0.dstage2_mmu.stage2_tlb.walker.walkRequestOrigin_Completed::Data            0                       # Table walker requests started/completed, data/inst
system.cpu0.dstage2_mmu.stage2_tlb.walker.walkRequestOrigin_Completed::Inst            0                       # Table walker requests started/completed, data/inst
system.cpu0.dstage2_mmu.stage2_tlb.walker.walkRequestOrigin_Completed::total            0                       # Table walker requests started/completed, data/inst
system.cpu0.dstage2_mmu.stage2_tlb.walker.walkRequestOrigin::total            0                       # Table walker requests started/completed, data/inst
system.cpu0.dstage2_mmu.stage2_tlb.inst_hits            0                       # ITB inst hits
system.cpu0.dstage2_mmu.stage2_tlb.inst_misses            0                       # ITB inst misses
system.cpu0.dstage2_mmu.stage2_tlb.read_hits            0                       # DTB read hits
system.cpu0.dstage2_mmu.stage2_tlb.read_misses            0                       # DTB read misses
system.cpu0.dstage2_mmu.stage2_tlb.write_hits            0                       # DTB write hits
system.cpu0.dstage2_mmu.stage2_tlb.write_misses            0                       # DTB write misses
system.cpu0.dstage2_mmu.stage2_tlb.flush_tlb            0                       # Number of times complete TLB was flushed
system.cpu0.dstage2_mmu.stage2_tlb.flush_tlb_mva            0                       # Number of times TLB was flushed by MVA
system.cpu0.dstage2_mmu.stage2_tlb.flush_tlb_mva_asid            0                       # Number of times TLB was flushed by MVA & ASID
system.cpu0.dstage2_mmu.stage2_tlb.flush_tlb_asid            0                       # Number of times TLB was flushed by ASID
system.cpu0.dstage2_mmu.stage2_tlb.flush_entries            0                       # Number of entries that have been flushed from TLB
system.cpu0.dstage2_mmu.stage2_tlb.align_faults            0                       # Number of TLB faults due to alignment restrictions
system.cpu0.dstage2_mmu.stage2_tlb.prefetch_faults            0                       # Number of TLB faults due to prefetch
system.cpu0.dstage2_mmu.stage2_tlb.domain_faults            0                       # Number of TLB faults due to domain restrictions
system.cpu0.dstage2_mmu.stage2_tlb.perms_faults            0                       # Number of TLB faults due to permissions restrictions
system.cpu0.dstage2_mmu.stage2_tlb.read_accesses            0                       # DTB read accesses
system.cpu0.dstage2_mmu.stage2_tlb.write_accesses            0                       # DTB write accesses
system.cpu0.dstage2_mmu.stage2_tlb.inst_accesses            0                       # ITB inst accesses
system.cpu0.dstage2_mmu.stage2_tlb.hits             0                       # DTB hits
system.cpu0.dstage2_mmu.stage2_tlb.misses            0                       # DTB misses
system.cpu0.dstage2_mmu.stage2_tlb.accesses            0                       # DTB accesses
system.cpu0.dtb.walker.pwrStateResidencyTicks::UNDEFINED  84861904000                       # Cumulative time (in ticks) in various power states
system.cpu0.dtb.walker.walks                        0                       # Table walker walks requested
system.cpu0.dtb.walker.walkRequestOrigin_Requested::Data            0                       # Table walker requests started/completed, data/inst
system.cpu0.dtb.walker.walkRequestOrigin_Requested::Inst            0                       # Table walker requests started/completed, data/inst
system.cpu0.dtb.walker.walkRequestOrigin_Requested::total            0                       # Table walker requests started/completed, data/inst
system.cpu0.dtb.walker.walkRequestOrigin_Completed::Data            0                       # Table walker requests started/completed, data/inst
system.cpu0.dtb.walker.walkRequestOrigin_Completed::Inst            0                       # Table walker requests started/completed, data/inst
system.cpu0.dtb.walker.walkRequestOrigin_Completed::total            0                       # Table walker requests started/completed, data/inst
system.cpu0.dtb.walker.walkRequestOrigin::total            0                       # Table walker requests started/completed, data/inst
system.cpu0.dtb.inst_hits                           0                       # ITB inst hits
system.cpu0.dtb.inst_misses                         0                       # ITB inst misses
system.cpu0.dtb.read_hits                           0                       # DTB read hits
system.cpu0.dtb.read_misses                         0                       # DTB read misses
system.cpu0.dtb.write_hits                          0                       # DTB write hits
system.cpu0.dtb.write_misses                        0                       # DTB write misses
system.cpu0.dtb.flush_tlb                           0                       # Number of times complete TLB was flushed
system.cpu0.dtb.flush_tlb_mva                       0                       # Number of times TLB was flushed by MVA
system.cpu0.dtb.flush_tlb_mva_asid                  0                       # Number of times TLB was flushed by MVA & ASID
system.cpu0.dtb.flush_tlb_asid                      0                       # Number of times TLB was flushed by ASID
system.cpu0.dtb.flush_entries                       0                       # Number of entries that have been flushed from TLB
system.cpu0.dtb.align_faults                        0                       # Number of TLB faults due to alignment restrictions
system.cpu0.dtb.prefetch_faults                     0                       # Number of TLB faults due to prefetch
system.cpu0.dtb.domain_faults                       0                       # Number of TLB faults due to domain restrictions
system.cpu0.dtb.perms_faults                        0                       # Number of TLB faults due to permissions restrictions
system.cpu0.dtb.read_accesses                       0                       # DTB read accesses
system.cpu0.dtb.write_accesses                      0                       # DTB write accesses
system.cpu0.dtb.inst_accesses                       0                       # ITB inst accesses
system.cpu0.dtb.hits                                0                       # DTB hits
system.cpu0.dtb.misses                              0                       # DTB misses
system.cpu0.dtb.accesses                            0                       # DTB accesses
system.cpu0.istage2_mmu.stage2_tlb.walker.pwrStateResidencyTicks::UNDEFINED  84861904000                       # Cumulative time (in ticks) in various power states
system.cpu0.istage2_mmu.stage2_tlb.walker.walks            0                       # Table walker walks requested
system.cpu0.istage2_mmu.stage2_tlb.walker.walkRequestOrigin_Requested::Data            0                       # Table walker requests started/completed, data/inst
system.cpu0.istage2_mmu.stage2_tlb.walker.walkRequestOrigin_Requested::Inst            0                       # Table walker requests started/completed, data/inst
system.cpu0.istage2_mmu.stage2_tlb.walker.walkRequestOrigin_Requested::total            0                       # Table walker requests started/completed, data/inst
system.cpu0.istage2_mmu.stage2_tlb.walker.walkRequestOrigin_Completed::Data            0                       # Table walker requests started/completed, data/inst
system.cpu0.istage2_mmu.stage2_tlb.walker.walkRequestOrigin_Completed::Inst            0                       # Table walker requests started/completed, data/inst
system.cpu0.istage2_mmu.stage2_tlb.walker.walkRequestOrigin_Completed::total            0                       # Table walker requests started/completed, data/inst
system.cpu0.istage2_mmu.stage2_tlb.walker.walkRequestOrigin::total            0                       # Table walker requests started/completed, data/inst
system.cpu0.istage2_mmu.stage2_tlb.inst_hits            0                       # ITB inst hits
system.cpu0.istage2_mmu.stage2_tlb.inst_misses            0                       # ITB inst misses
system.cpu0.istage2_mmu.stage2_tlb.read_hits            0                       # DTB read hits
system.cpu0.istage2_mmu.stage2_tlb.read_misses            0                       # DTB read misses
system.cpu0.istage2_mmu.stage2_tlb.write_hits            0                       # DTB write hits
system.cpu0.istage2_mmu.stage2_tlb.write_misses            0                       # DTB write misses
system.cpu0.istage2_mmu.stage2_tlb.flush_tlb            0                       # Number of times complete TLB was flushed
system.cpu0.istage2_mmu.stage2_tlb.flush_tlb_mva            0                       # Number of times TLB was flushed by MVA
system.cpu0.istage2_mmu.stage2_tlb.flush_tlb_mva_asid            0                       # Number of times TLB was flushed by MVA & ASID
system.cpu0.istage2_mmu.stage2_tlb.flush_tlb_asid            0                       # Number of times TLB was flushed by ASID
system.cpu0.istage2_mmu.stage2_tlb.flush_entries            0                       # Number of entries that have been flushed from TLB
system.cpu0.istage2_mmu.stage2_tlb.align_faults            0                       # Number of TLB faults due to alignment restrictions
system.cpu0.istage2_mmu.stage2_tlb.prefetch_faults            0                       # Number of TLB faults due to prefetch
system.cpu0.istage2_mmu.stage2_tlb.domain_faults            0                       # Number of TLB faults due to domain restrictions
system.cpu0.istage2_mmu.stage2_tlb.perms_faults            0                       # Number of TLB faults due to permissions restrictions
system.cpu0.istage2_mmu.stage2_tlb.read_accesses            0                       # DTB read accesses
system.cpu0.istage2_mmu.stage2_tlb.write_accesses            0                       # DTB write accesses
system.cpu0.istage2_mmu.stage2_tlb.inst_accesses            0                       # ITB inst accesses
system.cpu0.istage2_mmu.stage2_tlb.hits             0                       # DTB hits
system.cpu0.istage2_mmu.stage2_tlb.misses            0                       # DTB misses
system.cpu0.istage2_mmu.stage2_tlb.accesses            0                       # DTB accesses
system.cpu0.itb.walker.pwrStateResidencyTicks::UNDEFINED  84861904000                       # Cumulative time (in ticks) in various power states
system.cpu0.itb.walker.walks                        0                       # Table walker walks requested
system.cpu0.itb.walker.walkRequestOrigin_Requested::Data            0                       # Table walker requests started/completed, data/inst
system.cpu0.itb.walker.walkRequestOrigin_Requested::Inst            0                       # Table walker requests started/completed, data/inst
system.cpu0.itb.walker.walkRequestOrigin_Requested::total            0                       # Table walker requests started/completed, data/inst
system.cpu0.itb.walker.walkRequestOrigin_Completed::Data            0                       # Table walker requests started/completed, data/inst
system.cpu0.itb.walker.walkRequestOrigin_Completed::Inst            0                       # Table walker requests started/completed, data/inst
system.cpu0.itb.walker.walkRequestOrigin_Completed::total            0                       # Table walker requests started/completed, data/inst
system.cpu0.itb.walker.walkRequestOrigin::total            0                       # Table walker requests started/completed, data/inst
system.cpu0.itb.inst_hits                           0                       # ITB inst hits
system.cpu0.itb.inst_misses                         0                       # ITB inst misses
system.cpu0.itb.read_hits                           0                       # DTB read hits
system.cpu0.itb.read_misses                         0                       # DTB read misses
system.cpu0.itb.write_hits                          0                       # DTB write hits
system.cpu0.itb.write_misses                        0                       # DTB write misses
system.cpu0.itb.flush_tlb                           0                       # Number of times complete TLB was flushed
system.cpu0.itb.flush_tlb_mva                       0                       # Number of times TLB was flushed by MVA
system.cpu0.itb.flush_tlb_mva_asid                  0                       # Number of times TLB was flushed by MVA & ASID
system.cpu0.itb.flush_tlb_asid                      0                       # Number of times TLB was flushed by ASID
system.cpu0.itb.flush_entries                       0                       # Number of entries that have been flushed from TLB
system.cpu0.itb.align_faults                        0                       # Number of TLB faults due to alignment restrictions
system.cpu0.itb.prefetch_faults                     0                       # Number of TLB faults due to prefetch
system.cpu0.itb.domain_faults                       0                       # Number of TLB faults due to domain restrictions
system.cpu0.itb.perms_faults                        0                       # Number of TLB faults due to permissions restrictions
system.cpu0.itb.read_accesses                       0                       # DTB read accesses
system.cpu0.itb.write_accesses                      0                       # DTB write accesses
system.cpu0.itb.inst_accesses                       0                       # ITB inst accesses
system.cpu0.itb.hits                                0                       # DTB hits
system.cpu0.itb.misses                              0                       # DTB misses
system.cpu0.itb.accesses                            0                       # DTB accesses
system.cpu0.workload.num_syscalls              257213                       # Number of system calls
system.cpu0.pwrStateResidencyTicks::ON    84861904000                       # Cumulative time (in ticks) in various power states
system.cpu0.numCycles                        84861905                       # number of cpu cycles simulated
system.cpu0.numWorkItemsStarted                     0                       # number of work items this cpu started
system.cpu0.numWorkItemsCompleted                   0                       # number of work items this cpu completed
system.cpu0.fetch.icacheStallCycles          14943098                       # Number of cycles fetch is stalled on an Icache miss
system.cpu0.fetch.Insts                     104816220                       # Number of instructions fetch has processed
system.cpu0.fetch.Branches                   18686014                       # Number of branches that fetch encountered
system.cpu0.fetch.predictedBranches          11683026                       # Number of branches that fetch has predicted taken
system.cpu0.fetch.Cycles                     69419797                       # Number of cycles fetch has run and was not squashing or blocked
system.cpu0.fetch.SquashCycles                 879873                       # Number of cycles fetch has spent squashing
system.cpu0.fetch.MiscStallCycles                   6                       # Number of cycles fetch has spent waiting on interrupts, or bad addresses, or out of MSHRs
system.cpu0.fetch.PendingTrapStallCycles          198                       # Number of stall cycles due to pending traps
system.cpu0.fetch.IcacheWaitRetryStallCycles            2                       # Number of stall cycles due to full MSHR
system.cpu0.fetch.CacheLines                 14516954                       # Number of cache lines fetched
system.cpu0.fetch.IcacheSquashes                66180                       # Number of outstanding Icache misses that were squashed
system.cpu0.fetch.rateDist::samples          84803037                       # Number of instructions fetched each cycle (Total)
system.cpu0.fetch.rateDist::mean             1.397546                       # Number of instructions fetched each cycle (Total)
system.cpu0.fetch.rateDist::stdev            0.851384                       # Number of instructions fetched each cycle (Total)
system.cpu0.fetch.rateDist::underflows              0      0.00%      0.00% # Number of instructions fetched each cycle (Total)
system.cpu0.fetch.rateDist::0                20579607     24.27%     24.27% # Number of instructions fetched each cycle (Total)
system.cpu0.fetch.rateDist::1                 9930678     11.71%     35.98% # Number of instructions fetched each cycle (Total)
system.cpu0.fetch.rateDist::2                54292752     64.02%    100.00% # Number of instructions fetched each cycle (Total)
system.cpu0.fetch.rateDist::overflows               0      0.00%    100.00% # Number of instructions fetched each cycle (Total)
system.cpu0.fetch.rateDist::min_value               0                       # Number of instructions fetched each cycle (Total)
system.cpu0.fetch.rateDist::max_value               2                       # Number of instructions fetched each cycle (Total)
system.cpu0.fetch.rateDist::total            84803037                       # Number of instructions fetched each cycle (Total)
system.cpu0.fetch.branchRate                 0.220193                       # Number of branch fetches per cycle
system.cpu0.fetch.rate                       1.235139                       # Number of inst fetches per cycle
system.cpu0.decode.IdleCycles                12692376                       # Number of cycles decode is idle
system.cpu0.decode.BlockedCycles             12080547                       # Number of cycles decode is blocked
system.cpu0.decode.RunCycles                 47326927                       # Number of cycles decode is running
system.cpu0.decode.UnblockCycles             12296595                       # Number of cycles decode is unblocking
system.cpu0.decode.SquashCycles                406592                       # Number of cycles decode is squashing
system.cpu0.decode.BranchResolved             4957457                       # Number of times decode resolved a branch
system.cpu0.decode.BranchMispred                33739                       # Number of times decode detected a branch misprediction
system.cpu0.decode.DecodedInsts             115741234                       # Number of instructions handled by decode
system.cpu0.decode.SquashedInsts                56882                       # Number of squashed instructions handled by decode
system.cpu0.rename.SquashCycles                406592                       # Number of cycles rename is squashing
system.cpu0.rename.IdleCycles                15366936                       # Number of cycles rename is idle
system.cpu0.rename.BlockCycles                1452019                       # Number of cycles rename is blocking
system.cpu0.rename.serializeStallCycles        641703                       # count of cycles rename stalled for serializing inst
system.cpu0.rename.RunCycles                 56917972                       # Number of cycles rename is running
system.cpu0.rename.UnblockCycles             10017815                       # Number of cycles rename is unblocking
system.cpu0.rename.RenamedInsts             115112164                       # Number of instructions processed by rename
system.cpu0.rename.IQFullEvents               7630268                       # Number of times rename has blocked due to IQ full
system.cpu0.rename.LQFullEvents                 51020                       # Number of times rename has blocked due to LQ full
system.cpu0.rename.SQFullEvents                  2076                       # Number of times rename has blocked due to SQ full
system.cpu0.rename.RenamedOperands          144556327                       # Number of destination operands rename has renamed
system.cpu0.rename.RenameLookups            531808950                       # Number of register rename lookups that rename has made
system.cpu0.rename.int_rename_lookups       147045943                       # Number of integer rename lookups
system.cpu0.rename.fp_rename_lookups               16                       # Number of floating rename lookups
system.cpu0.rename.CommittedMaps            124092420                       # Number of HB maps that are committed
system.cpu0.rename.UndoneMaps                20463907                       # Number of HB maps that are undone due to squashing
system.cpu0.rename.serializingInsts             20768                       # count of serializing insts renamed
system.cpu0.rename.tempSerializingInsts          9384                       # count of temporary serializing insts renamed
system.cpu0.rename.skidInsts                 10750660                       # count of insts added to the skid buffer
system.cpu0.memDep0.insertedLoads            14822850                       # Number of loads inserted to the mem dependence unit.
system.cpu0.memDep0.insertedStores            9412742                       # Number of stores inserted to the mem dependence unit.
system.cpu0.memDep0.conflictingLoads          4514107                       # Number of conflicting loads.
system.cpu0.memDep0.conflictingStores         1734903                       # Number of conflicting stores.
system.cpu0.iq.iqInstsAdded                 113863982                       # Number of instructions added to the IQ (excludes non-spec)
system.cpu0.iq.iqNonSpecInstsAdded              18289                       # Number of non-speculative instructions added to the IQ
system.cpu0.iq.iqInstsIssued                102540411                       # Number of instructions issued
system.cpu0.iq.iqSquashedInstsIssued          1534300                       # Number of squashed instructions issued
system.cpu0.iq.iqSquashedInstsExamined       13309381                       # Number of squashed instructions iterated over during squash; mainly for profiling
system.cpu0.iq.iqSquashedOperandsExamined     53910658                       # Number of squashed operands that are examined and possibly removed from graph
system.cpu0.iq.iqSquashedNonSpecRemoved           983                       # Number of squashed non-spec instructions that were removed
system.cpu0.iq.issued_per_cycle::samples     84803037                       # Number of insts issued each cycle
system.cpu0.iq.issued_per_cycle::mean        1.209160                       # Number of insts issued each cycle
system.cpu0.iq.issued_per_cycle::stdev       0.524825                       # Number of insts issued each cycle
system.cpu0.iq.issued_per_cycle::underflows            0      0.00%      0.00% # Number of insts issued each cycle
system.cpu0.iq.issued_per_cycle::0            4665414      5.50%      5.50% # Number of insts issued each cycle
system.cpu0.iq.issued_per_cycle::1           57734835     68.08%     73.58% # Number of insts issued each cycle
system.cpu0.iq.issued_per_cycle::2           22402788     26.42%    100.00% # Number of insts issued each cycle
system.cpu0.iq.issued_per_cycle::overflows            0      0.00%    100.00% # Number of insts issued each cycle
system.cpu0.iq.issued_per_cycle::min_value            0                       # Number of insts issued each cycle
system.cpu0.iq.issued_per_cycle::max_value            2                       # Number of insts issued each cycle
system.cpu0.iq.issued_per_cycle::total       84803037                       # Number of insts issued each cycle
system.cpu0.iq.fu_full::No_OpClass                  0      0.00%      0.00% # attempts to use FU when none available
system.cpu0.iq.fu_full::IntAlu               62082976     94.17%     94.17% # attempts to use FU when none available
system.cpu0.iq.fu_full::IntMult                     0      0.00%     94.17% # attempts to use FU when none available
system.cpu0.iq.fu_full::IntDiv                      0      0.00%     94.17% # attempts to use FU when none available
system.cpu0.iq.fu_full::FloatAdd                    0      0.00%     94.17% # attempts to use FU when none available
system.cpu0.iq.fu_full::FloatCmp                    0      0.00%     94.17% # attempts to use FU when none available
system.cpu0.iq.fu_full::FloatCvt                    0      0.00%     94.17% # attempts to use FU when none available
system.cpu0.iq.fu_full::FloatMult                   0      0.00%     94.17% # attempts to use FU when none available
system.cpu0.iq.fu_full::FloatMultAcc                0      0.00%     94.17% # attempts to use FU when none available
system.cpu0.iq.fu_full::FloatDiv                    0      0.00%     94.17% # attempts to use FU when none available
system.cpu0.iq.fu_full::FloatMisc                   0      0.00%     94.17% # attempts to use FU when none available
system.cpu0.iq.fu_full::FloatSqrt                   0      0.00%     94.17% # attempts to use FU when none available
system.cpu0.iq.fu_full::SimdAdd                     0      0.00%     94.17% # attempts to use FU when none available
system.cpu0.iq.fu_full::SimdAddAcc                  0      0.00%     94.17% # attempts to use FU when none available
system.cpu0.iq.fu_full::SimdAlu                     0      0.00%     94.17% # attempts to use FU when none available
system.cpu0.iq.fu_full::SimdCmp                     0      0.00%     94.17% # attempts to use FU when none available
system.cpu0.iq.fu_full::SimdCvt                     0      0.00%     94.17% # attempts to use FU when none available
system.cpu0.iq.fu_full::SimdMisc                    0      0.00%     94.17% # attempts to use FU when none available
system.cpu0.iq.fu_full::SimdMult                    0      0.00%     94.17% # attempts to use FU when none available
system.cpu0.iq.fu_full::SimdMultAcc                 0      0.00%     94.17% # attempts to use FU when none available
system.cpu0.iq.fu_full::SimdShift                   0      0.00%     94.17% # attempts to use FU when none available
system.cpu0.iq.fu_full::SimdShiftAcc                0      0.00%     94.17% # attempts to use FU when none available
system.cpu0.iq.fu_full::SimdSqrt                    0      0.00%     94.17% # attempts to use FU when none available
system.cpu0.iq.fu_full::SimdFloatAdd                0      0.00%     94.17% # attempts to use FU when none available
system.cpu0.iq.fu_full::SimdFloatAlu                0      0.00%     94.17% # attempts to use FU when none available
system.cpu0.iq.fu_full::SimdFloatCmp                0      0.00%     94.17% # attempts to use FU when none available
system.cpu0.iq.fu_full::SimdFloatCvt                0      0.00%     94.17% # attempts to use FU when none available
system.cpu0.iq.fu_full::SimdFloatDiv                0      0.00%     94.17% # attempts to use FU when none available
system.cpu0.iq.fu_full::SimdFloatMisc               0      0.00%     94.17% # attempts to use FU when none available
system.cpu0.iq.fu_full::SimdFloatMult               0      0.00%     94.17% # attempts to use FU when none available
system.cpu0.iq.fu_full::SimdFloatMultAcc            0      0.00%     94.17% # attempts to use FU when none available
system.cpu0.iq.fu_full::SimdFloatSqrt               0      0.00%     94.17% # attempts to use FU when none available
system.cpu0.iq.fu_full::MemRead               2538740      3.85%     98.03% # attempts to use FU when none available
system.cpu0.iq.fu_full::MemWrite              1301810      1.97%    100.00% # attempts to use FU when none available
system.cpu0.iq.fu_full::FloatMemRead                0      0.00%    100.00% # attempts to use FU when none available
system.cpu0.iq.fu_full::FloatMemWrite               0      0.00%    100.00% # attempts to use FU when none available
system.cpu0.iq.fu_full::IprAccess                   0      0.00%    100.00% # attempts to use FU when none available
system.cpu0.iq.fu_full::InstPrefetch                0      0.00%    100.00% # attempts to use FU when none available
system.cpu0.iq.FU_type_0::No_OpClass                0      0.00%      0.00% # Type of FU issued
system.cpu0.iq.FU_type_0::IntAlu             78866136     76.91%     76.91% # Type of FU issued
system.cpu0.iq.FU_type_0::IntMult              523924      0.51%     77.42% # Type of FU issued
system.cpu0.iq.FU_type_0::IntDiv                    0      0.00%     77.42% # Type of FU issued
system.cpu0.iq.FU_type_0::FloatAdd                  0      0.00%     77.42% # Type of FU issued
system.cpu0.iq.FU_type_0::FloatCmp                  0      0.00%     77.42% # Type of FU issued
system.cpu0.iq.FU_type_0::FloatCvt                  0      0.00%     77.42% # Type of FU issued
system.cpu0.iq.FU_type_0::FloatMult                 0      0.00%     77.42% # Type of FU issued
system.cpu0.iq.FU_type_0::FloatMultAcc              0      0.00%     77.42% # Type of FU issued
system.cpu0.iq.FU_type_0::FloatDiv                  0      0.00%     77.42% # Type of FU issued
system.cpu0.iq.FU_type_0::FloatMisc                 0      0.00%     77.42% # Type of FU issued
system.cpu0.iq.FU_type_0::FloatSqrt                 0      0.00%     77.42% # Type of FU issued
system.cpu0.iq.FU_type_0::SimdAdd                   0      0.00%     77.42% # Type of FU issued
system.cpu0.iq.FU_type_0::SimdAddAcc                0      0.00%     77.42% # Type of FU issued
system.cpu0.iq.FU_type_0::SimdAlu                   0      0.00%     77.42% # Type of FU issued
system.cpu0.iq.FU_type_0::SimdCmp                   0      0.00%     77.42% # Type of FU issued
system.cpu0.iq.FU_type_0::SimdCvt                   0      0.00%     77.42% # Type of FU issued
system.cpu0.iq.FU_type_0::SimdMisc                  0      0.00%     77.42% # Type of FU issued
system.cpu0.iq.FU_type_0::SimdMult                  0      0.00%     77.42% # Type of FU issued
system.cpu0.iq.FU_type_0::SimdMultAcc               0      0.00%     77.42% # Type of FU issued
system.cpu0.iq.FU_type_0::SimdShift                 0      0.00%     77.42% # Type of FU issued
system.cpu0.iq.FU_type_0::SimdShiftAcc              0      0.00%     77.42% # Type of FU issued
system.cpu0.iq.FU_type_0::SimdSqrt                  0      0.00%     77.42% # Type of FU issued
system.cpu0.iq.FU_type_0::SimdFloatAdd              0      0.00%     77.42% # Type of FU issued
system.cpu0.iq.FU_type_0::SimdFloatAlu              0      0.00%     77.42% # Type of FU issued
system.cpu0.iq.FU_type_0::SimdFloatCmp              0      0.00%     77.42% # Type of FU issued
system.cpu0.iq.FU_type_0::SimdFloatCvt              0      0.00%     77.42% # Type of FU issued
system.cpu0.iq.FU_type_0::SimdFloatDiv              0      0.00%     77.42% # Type of FU issued
system.cpu0.iq.FU_type_0::SimdFloatMisc         11308      0.01%     77.43% # Type of FU issued
system.cpu0.iq.FU_type_0::SimdFloatMult             0      0.00%     77.43% # Type of FU issued
system.cpu0.iq.FU_type_0::SimdFloatMultAcc            0      0.00%     77.43% # Type of FU issued
system.cpu0.iq.FU_type_0::SimdFloatSqrt             0      0.00%     77.43% # Type of FU issued
system.cpu0.iq.FU_type_0::MemRead            14312297     13.96%     91.39% # Type of FU issued
system.cpu0.iq.FU_type_0::MemWrite            8826730      8.61%    100.00% # Type of FU issued
system.cpu0.iq.FU_type_0::FloatMemRead              0      0.00%    100.00% # Type of FU issued
system.cpu0.iq.FU_type_0::FloatMemWrite            16      0.00%    100.00% # Type of FU issued
system.cpu0.iq.FU_type_0::IprAccess                 0      0.00%    100.00% # Type of FU issued
system.cpu0.iq.FU_type_0::InstPrefetch              0      0.00%    100.00% # Type of FU issued
system.cpu0.iq.FU_type_0::total             102540411                       # Type of FU issued
system.cpu0.iq.rate                          1.208321                       # Inst issue rate
system.cpu0.iq.fu_busy_cnt                   65923526                       # FU busy when requested
system.cpu0.iq.fu_busy_rate                  0.642903                       # FU busy rate (busy events/executed inst)
system.cpu0.iq.int_inst_queue_reads         357341653                       # Number of integer instruction queue reads
system.cpu0.iq.int_inst_queue_writes        127193541                       # Number of integer instruction queue writes
system.cpu0.iq.int_inst_queue_wakeup_accesses    102116075                       # Number of integer instruction queue wakeup accesses
system.cpu0.iq.fp_inst_queue_reads                 32                       # Number of floating instruction queue reads
system.cpu0.iq.fp_inst_queue_writes                16                       # Number of floating instruction queue writes
system.cpu0.iq.fp_inst_queue_wakeup_accesses           16                       # Number of floating instruction queue wakeup accesses
system.cpu0.iq.int_alu_accesses             168463921                       # Number of integer alu accesses
system.cpu0.iq.fp_alu_accesses                     16                       # Number of floating point alu accesses
system.cpu0.iew.lsq.thread0.forwLoads         1955551                       # Number of loads that had data forwarded from stores
system.cpu0.iew.lsq.thread0.invAddrLoads            0                       # Number of loads ignored due to an invalid address
system.cpu0.iew.lsq.thread0.squashedLoads      1232445                       # Number of loads squashed
system.cpu0.iew.lsq.thread0.ignoredResponses          355                       # Number of memory responses ignored because the instruction is squashed
system.cpu0.iew.lsq.thread0.memOrderViolation         1918                       # Number of memory ordering violations
system.cpu0.iew.lsq.thread0.squashedStores       753511                       # Number of stores squashed
system.cpu0.iew.lsq.thread0.invAddrSwpfs            0                       # Number of software prefetches ignored due to an invalid address
system.cpu0.iew.lsq.thread0.blockedLoads            0                       # Number of blocked loads due to partial load-store forwarding
system.cpu0.iew.lsq.thread0.rescheduledLoads       200055                       # Number of loads that were rescheduled
system.cpu0.iew.lsq.thread0.cacheBlocked         3649                       # Number of times an access to memory failed due to the cache being blocked
system.cpu0.iew.iewIdleCycles                       0                       # Number of cycles IEW is idle
system.cpu0.iew.iewSquashCycles                406592                       # Number of cycles IEW is squashing
system.cpu0.iew.iewBlockCycles                1428079                       # Number of cycles IEW is blocking
system.cpu0.iew.iewUnblockCycles                18374                       # Number of cycles IEW is unblocking
system.cpu0.iew.iewDispatchedInsts          113882374                       # Number of instructions dispatched to IQ
system.cpu0.iew.iewDispSquashedInsts            72917                       # Number of squashed instructions skipped by dispatch
system.cpu0.iew.iewDispLoadInsts             14822850                       # Number of dispatched load instructions
system.cpu0.iew.iewDispStoreInsts             9412742                       # Number of dispatched store instructions
system.cpu0.iew.iewDispNonSpecInsts              9300                       # Number of dispatched non-speculative instructions
system.cpu0.iew.iewIQFullEvents                   182                       # Number of times the IQ has become full, causing a stall
system.cpu0.iew.iewLSQFullEvents                  203                       # Number of times the LSQ has become full, causing a stall
system.cpu0.iew.memOrderViolationEvents          1918                       # Number of memory order violations
system.cpu0.iew.predictedTakenIncorrect        216476                       # Number of branches that were predicted taken incorrectly
system.cpu0.iew.predictedNotTakenIncorrect       210870                       # Number of branches that were predicted not taken incorrectly
system.cpu0.iew.branchMispredicts              427346                       # Number of branch mispredicts detected at execute
system.cpu0.iew.iewExecutedInsts            102406817                       # Number of executed instructions
system.cpu0.iew.iewExecLoadInsts             14264326                       # Number of load instructions executed
system.cpu0.iew.iewExecSquashedInsts           133594                       # Number of squashed instructions skipped in execute
system.cpu0.iew.exec_swp                            0                       # number of swp insts executed
system.cpu0.iew.exec_nop                          103                       # number of nop insts executed
system.cpu0.iew.exec_refs                    23062979                       # number of memory reference insts executed
system.cpu0.iew.exec_branches                15961154                       # Number of branches executed
system.cpu0.iew.exec_stores                   8798653                       # Number of stores executed
system.cpu0.iew.exec_rate                    1.206747                       # Inst execution rate
system.cpu0.iew.wb_sent                     102141390                       # cumulative count of insts sent to commit
system.cpu0.iew.wb_count                    102116091                       # cumulative count of insts written-back
system.cpu0.iew.wb_producers                 74475458                       # num instructions producing a value
system.cpu0.iew.wb_consumers                172770318                       # num instructions consuming a value
system.cpu0.iew.wb_rate                      1.203321                       # insts written-back per cycle
system.cpu0.iew.wb_fanout                    0.431066                       # average fanout of values written-back
system.cpu0.commit.commitSquashedInsts       13309485                       # The number of squashed insts skipped by commit
system.cpu0.commit.commitNonSpecStalls          17306                       # The number of times commit has been forced to stall to communicate backwards
system.cpu0.commit.branchMispredicts           402590                       # The number of times a branch was mispredicted
system.cpu0.commit.committed_per_cycle::samples     82971547                       # Number of insts commited each cycle
system.cpu0.commit.committed_per_cycle::mean     1.212137                       # Number of insts commited each cycle
system.cpu0.commit.committed_per_cycle::stdev     1.043712                       # Number of insts commited each cycle
system.cpu0.commit.committed_per_cycle::underflows            0      0.00%      0.00% # Number of insts commited each cycle
system.cpu0.commit.committed_per_cycle::0      8866152     10.69%     10.69% # Number of insts commited each cycle
system.cpu0.commit.committed_per_cycle::1     60660924     73.11%     83.80% # Number of insts commited each cycle
system.cpu0.commit.committed_per_cycle::2      8035274      9.68%     93.48% # Number of insts commited each cycle
system.cpu0.commit.committed_per_cycle::3      2464445      2.97%     96.45% # Number of insts commited each cycle
system.cpu0.commit.committed_per_cycle::4      1046793      1.26%     97.71% # Number of insts commited each cycle
system.cpu0.commit.committed_per_cycle::5       300390      0.36%     98.07% # Number of insts commited each cycle
system.cpu0.commit.committed_per_cycle::6       565424      0.68%     98.76% # Number of insts commited each cycle
system.cpu0.commit.committed_per_cycle::7       890743      1.07%     99.83% # Number of insts commited each cycle
system.cpu0.commit.committed_per_cycle::8       141402      0.17%    100.00% # Number of insts commited each cycle
system.cpu0.commit.committed_per_cycle::overflows            0      0.00%    100.00% # Number of insts commited each cycle
system.cpu0.commit.committed_per_cycle::min_value            0                       # Number of insts commited each cycle
system.cpu0.commit.committed_per_cycle::max_value            8                       # Number of insts commited each cycle
system.cpu0.commit.committed_per_cycle::total     82971547                       # Number of insts commited each cycle
system.cpu0.commit.committedInsts            89002574                       # Number of instructions committed
system.cpu0.commit.committedOps             100572890                       # Number of ops (including micro ops) committed
system.cpu0.commit.swp_count                        0                       # Number of s/w prefetches committed
system.cpu0.commit.refs                      22249636                       # Number of memory references committed
system.cpu0.commit.loads                     13590405                       # Number of loads committed
system.cpu0.commit.membars                       8889                       # Number of memory barriers committed
system.cpu0.commit.branches                  15803752                       # Number of branches committed
system.cpu0.commit.fp_insts                        16                       # Number of committed floating point instructions.
system.cpu0.commit.int_insts                 90920705                       # Number of committed integer instructions.
system.cpu0.commit.function_calls             2565503                       # Number of function calls committed.
system.cpu0.commit.op_class_0::No_OpClass            0      0.00%      0.00% # Class of committed instruction
system.cpu0.commit.op_class_0::IntAlu        77806797     77.36%     77.36% # Class of committed instruction
system.cpu0.commit.op_class_0::IntMult         505149      0.50%     77.87% # Class of committed instruction
system.cpu0.commit.op_class_0::IntDiv               0      0.00%     77.87% # Class of committed instruction
system.cpu0.commit.op_class_0::FloatAdd             0      0.00%     77.87% # Class of committed instruction
system.cpu0.commit.op_class_0::FloatCmp             0      0.00%     77.87% # Class of committed instruction
system.cpu0.commit.op_class_0::FloatCvt             0      0.00%     77.87% # Class of committed instruction
system.cpu0.commit.op_class_0::FloatMult            0      0.00%     77.87% # Class of committed instruction
system.cpu0.commit.op_class_0::FloatMultAcc            0      0.00%     77.87% # Class of committed instruction
system.cpu0.commit.op_class_0::FloatDiv             0      0.00%     77.87% # Class of committed instruction
system.cpu0.commit.op_class_0::FloatMisc            0      0.00%     77.87% # Class of committed instruction
system.cpu0.commit.op_class_0::FloatSqrt            0      0.00%     77.87% # Class of committed instruction
system.cpu0.commit.op_class_0::SimdAdd              0      0.00%     77.87% # Class of committed instruction
system.cpu0.commit.op_class_0::SimdAddAcc            0      0.00%     77.87% # Class of committed instruction
system.cpu0.commit.op_class_0::SimdAlu              0      0.00%     77.87% # Class of committed instruction
system.cpu0.commit.op_class_0::SimdCmp              0      0.00%     77.87% # Class of committed instruction
system.cpu0.commit.op_class_0::SimdCvt              0      0.00%     77.87% # Class of committed instruction
system.cpu0.commit.op_class_0::SimdMisc             0      0.00%     77.87% # Class of committed instruction
system.cpu0.commit.op_class_0::SimdMult             0      0.00%     77.87% # Class of committed instruction
system.cpu0.commit.op_class_0::SimdMultAcc            0      0.00%     77.87% # Class of committed instruction
system.cpu0.commit.op_class_0::SimdShift            0      0.00%     77.87% # Class of committed instruction
system.cpu0.commit.op_class_0::SimdShiftAcc            0      0.00%     77.87% # Class of committed instruction
system.cpu0.commit.op_class_0::SimdSqrt             0      0.00%     77.87% # Class of committed instruction
system.cpu0.commit.op_class_0::SimdFloatAdd            0      0.00%     77.87% # Class of committed instruction
system.cpu0.commit.op_class_0::SimdFloatAlu            0      0.00%     77.87% # Class of committed instruction
system.cpu0.commit.op_class_0::SimdFloatCmp            0      0.00%     77.87% # Class of committed instruction
system.cpu0.commit.op_class_0::SimdFloatCvt            0      0.00%     77.87% # Class of committed instruction
system.cpu0.commit.op_class_0::SimdFloatDiv            0      0.00%     77.87% # Class of committed instruction
system.cpu0.commit.op_class_0::SimdFloatMisc        11308      0.01%     77.88% # Class of committed instruction
system.cpu0.commit.op_class_0::SimdFloatMult            0      0.00%     77.88% # Class of committed instruction
system.cpu0.commit.op_class_0::SimdFloatMultAcc            0      0.00%     77.88% # Class of committed instruction
system.cpu0.commit.op_class_0::SimdFloatSqrt            0      0.00%     77.88% # Class of committed instruction
system.cpu0.commit.op_class_0::MemRead       13590405     13.51%     91.39% # Class of committed instruction
system.cpu0.commit.op_class_0::MemWrite       8659215      8.61%    100.00% # Class of committed instruction
system.cpu0.commit.op_class_0::FloatMemRead            0      0.00%    100.00% # Class of committed instruction
system.cpu0.commit.op_class_0::FloatMemWrite           16      0.00%    100.00% # Class of committed instruction
system.cpu0.commit.op_class_0::IprAccess            0      0.00%    100.00% # Class of committed instruction
system.cpu0.commit.op_class_0::InstPrefetch            0      0.00%    100.00% # Class of committed instruction
system.cpu0.commit.op_class_0::total        100572890                       # Class of committed instruction
system.cpu0.commit.bw_lim_events               141402                       # number cycles where commit BW limit reached
system.cpu0.rob.rob_reads                   196682731                       # The number of ROB reads
system.cpu0.rob.rob_writes                  229596707                       # The number of ROB writes
system.cpu0.timesIdled                           2874                       # Number of times that the entire CPU went into an idle state and unscheduled itself
system.cpu0.idleCycles                          58868                       # Total number of cycles that the CPU has spent unscheduled due to idling
system.cpu0.committedInsts                   89002574                       # Number of Instructions Simulated
system.cpu0.committedOps                    100572890                       # Number of Ops (including micro ops) Simulated
system.cpu0.cpi                              0.953477                       # CPI: Cycles Per Instruction
system.cpu0.cpi_total                        0.953477                       # CPI: Total CPI of All Threads
system.cpu0.ipc                              1.048793                       # IPC: Instructions Per Cycle
system.cpu0.ipc_total                        1.048793                       # IPC: Total IPC of All Threads
system.cpu0.int_regfile_reads               120292369                       # number of integer regfile reads
system.cpu0.int_regfile_writes               71005073                       # number of integer regfile writes
system.cpu0.fp_regfile_reads                     1136                       # number of floating regfile reads
system.cpu0.cc_regfile_reads                352397745                       # number of cc regfile reads
system.cpu0.cc_regfile_writes                53282588                       # number of cc regfile writes
system.cpu0.misc_regfile_reads               22845472                       # number of misc regfile reads
system.cpu0.misc_regfile_writes                 14545                       # number of misc regfile writes
system.cpu0.dcache.tags.pwrStateResidencyTicks::UNDEFINED  84861904000                       # Cumulative time (in ticks) in various power states
system.cpu0.dcache.tags.replacements             2197                       # number of replacements
system.cpu0.dcache.tags.tagsinuse          458.409001                       # Cycle average of tags in use
system.cpu0.dcache.tags.total_refs           20147876                       # Total number of references to valid blocks.
system.cpu0.dcache.tags.sampled_refs             2701                       # Sample count of references to valid blocks.
system.cpu0.dcache.tags.avg_refs          7459.413551                       # Average number of references to valid blocks.
system.cpu0.dcache.tags.warmup_cycle      14169674000                       # Cycle when the warmup percentage was hit.
system.cpu0.dcache.tags.occ_blocks::cpu0.data   458.409001                       # Average occupied blocks per requestor
system.cpu0.dcache.tags.occ_percent::cpu0.data     0.895330                       # Average percentage of cache occupancy
system.cpu0.dcache.tags.occ_percent::total     0.895330                       # Average percentage of cache occupancy
system.cpu0.dcache.tags.occ_task_id_blocks::1024          504                       # Occupied blocks per task id
system.cpu0.dcache.tags.age_task_id_blocks_1024::0           26                       # Occupied blocks per task id
system.cpu0.dcache.tags.age_task_id_blocks_1024::1          107                       # Occupied blocks per task id
system.cpu0.dcache.tags.age_task_id_blocks_1024::2           17                       # Occupied blocks per task id
system.cpu0.dcache.tags.age_task_id_blocks_1024::3          186                       # Occupied blocks per task id
system.cpu0.dcache.tags.age_task_id_blocks_1024::4          168                       # Occupied blocks per task id
system.cpu0.dcache.tags.occ_task_id_percent::1024     0.984375                       # Percentage of cache occupancy per task id
system.cpu0.dcache.tags.tag_accesses        161338573                       # Number of tag accesses
system.cpu0.dcache.tags.data_accesses       161338573                       # Number of data accesses
system.cpu0.dcache.pwrStateResidencyTicks::UNDEFINED  84861904000                       # Cumulative time (in ticks) in various power states
system.cpu0.dcache.ReadReq_hits::cpu0.data     11642262                       # number of ReadReq hits
system.cpu0.dcache.ReadReq_hits::total       11642262                       # number of ReadReq hits
system.cpu0.dcache.WriteReq_hits::cpu0.data      8492542                       # number of WriteReq hits
system.cpu0.dcache.WriteReq_hits::total       8492542                       # number of WriteReq hits
system.cpu0.dcache.LoadLockedReq_hits::cpu0.data         5418                       # number of LoadLockedReq hits
system.cpu0.dcache.LoadLockedReq_hits::total         5418                       # number of LoadLockedReq hits
system.cpu0.dcache.StoreCondReq_hits::cpu0.data         4149                       # number of StoreCondReq hits
system.cpu0.dcache.StoreCondReq_hits::total         4149                       # number of StoreCondReq hits
system.cpu0.dcache.demand_hits::cpu0.data     20134804                       # number of demand (read+write) hits
system.cpu0.dcache.demand_hits::total        20134804                       # number of demand (read+write) hits
system.cpu0.dcache.overall_hits::cpu0.data     20134804                       # number of overall hits
system.cpu0.dcache.overall_hits::total       20134804                       # number of overall hits
system.cpu0.dcache.ReadReq_misses::cpu0.data         7564                       # number of ReadReq misses
system.cpu0.dcache.ReadReq_misses::total         7564                       # number of ReadReq misses
system.cpu0.dcache.WriteReq_misses::cpu0.data        11574                       # number of WriteReq misses
system.cpu0.dcache.WriteReq_misses::total        11574                       # number of WriteReq misses
system.cpu0.dcache.LoadLockedReq_misses::cpu0.data          995                       # number of LoadLockedReq misses
system.cpu0.dcache.LoadLockedReq_misses::total          995                       # number of LoadLockedReq misses
system.cpu0.dcache.StoreCondReq_misses::cpu0.data         1678                       # number of StoreCondReq misses
system.cpu0.dcache.StoreCondReq_misses::total         1678                       # number of StoreCondReq misses
system.cpu0.dcache.demand_misses::cpu0.data        19138                       # number of demand (read+write) misses
system.cpu0.dcache.demand_misses::total         19138                       # number of demand (read+write) misses
system.cpu0.dcache.overall_misses::cpu0.data        19138                       # number of overall misses
system.cpu0.dcache.overall_misses::total        19138                       # number of overall misses
system.cpu0.dcache.ReadReq_miss_latency::cpu0.data    184932000                       # number of ReadReq miss cycles
system.cpu0.dcache.ReadReq_miss_latency::total    184932000                       # number of ReadReq miss cycles
system.cpu0.dcache.WriteReq_miss_latency::cpu0.data    285364806                       # number of WriteReq miss cycles
system.cpu0.dcache.WriteReq_miss_latency::total    285364806                       # number of WriteReq miss cycles
system.cpu0.dcache.LoadLockedReq_miss_latency::cpu0.data     16108000                       # number of LoadLockedReq miss cycles
system.cpu0.dcache.LoadLockedReq_miss_latency::total     16108000                       # number of LoadLockedReq miss cycles
system.cpu0.dcache.StoreCondReq_miss_latency::cpu0.data     25585000                       # number of StoreCondReq miss cycles
system.cpu0.dcache.StoreCondReq_miss_latency::total     25585000                       # number of StoreCondReq miss cycles
system.cpu0.dcache.StoreCondFailReq_miss_latency::cpu0.data      1736000                       # number of StoreCondFailReq miss cycles
system.cpu0.dcache.StoreCondFailReq_miss_latency::total      1736000                       # number of StoreCondFailReq miss cycles
system.cpu0.dcache.demand_miss_latency::cpu0.data    470296806                       # number of demand (read+write) miss cycles
system.cpu0.dcache.demand_miss_latency::total    470296806                       # number of demand (read+write) miss cycles
system.cpu0.dcache.overall_miss_latency::cpu0.data    470296806                       # number of overall miss cycles
system.cpu0.dcache.overall_miss_latency::total    470296806                       # number of overall miss cycles
system.cpu0.dcache.ReadReq_accesses::cpu0.data     11649826                       # number of ReadReq accesses(hits+misses)
system.cpu0.dcache.ReadReq_accesses::total     11649826                       # number of ReadReq accesses(hits+misses)
system.cpu0.dcache.WriteReq_accesses::cpu0.data      8504116                       # number of WriteReq accesses(hits+misses)
system.cpu0.dcache.WriteReq_accesses::total      8504116                       # number of WriteReq accesses(hits+misses)
system.cpu0.dcache.LoadLockedReq_accesses::cpu0.data         6413                       # number of LoadLockedReq accesses(hits+misses)
system.cpu0.dcache.LoadLockedReq_accesses::total         6413                       # number of LoadLockedReq accesses(hits+misses)
system.cpu0.dcache.StoreCondReq_accesses::cpu0.data         5827                       # number of StoreCondReq accesses(hits+misses)
system.cpu0.dcache.StoreCondReq_accesses::total         5827                       # number of StoreCondReq accesses(hits+misses)
system.cpu0.dcache.demand_accesses::cpu0.data     20153942                       # number of demand (read+write) accesses
system.cpu0.dcache.demand_accesses::total     20153942                       # number of demand (read+write) accesses
system.cpu0.dcache.overall_accesses::cpu0.data     20153942                       # number of overall (read+write) accesses
system.cpu0.dcache.overall_accesses::total     20153942                       # number of overall (read+write) accesses
system.cpu0.dcache.ReadReq_miss_rate::cpu0.data     0.000649                       # miss rate for ReadReq accesses
system.cpu0.dcache.ReadReq_miss_rate::total     0.000649                       # miss rate for ReadReq accesses
system.cpu0.dcache.WriteReq_miss_rate::cpu0.data     0.001361                       # miss rate for WriteReq accesses
system.cpu0.dcache.WriteReq_miss_rate::total     0.001361                       # miss rate for WriteReq accesses
system.cpu0.dcache.LoadLockedReq_miss_rate::cpu0.data     0.155154                       # miss rate for LoadLockedReq accesses
system.cpu0.dcache.LoadLockedReq_miss_rate::total     0.155154                       # miss rate for LoadLockedReq accesses
system.cpu0.dcache.StoreCondReq_miss_rate::cpu0.data     0.287970                       # miss rate for StoreCondReq accesses
system.cpu0.dcache.StoreCondReq_miss_rate::total     0.287970                       # miss rate for StoreCondReq accesses
system.cpu0.dcache.demand_miss_rate::cpu0.data     0.000950                       # miss rate for demand accesses
system.cpu0.dcache.demand_miss_rate::total     0.000950                       # miss rate for demand accesses
system.cpu0.dcache.overall_miss_rate::cpu0.data     0.000950                       # miss rate for overall accesses
system.cpu0.dcache.overall_miss_rate::total     0.000950                       # miss rate for overall accesses
system.cpu0.dcache.ReadReq_avg_miss_latency::cpu0.data 24448.968800                       # average ReadReq miss latency
system.cpu0.dcache.ReadReq_avg_miss_latency::total 24448.968800                       # average ReadReq miss latency
system.cpu0.dcache.WriteReq_avg_miss_latency::cpu0.data 24655.677035                       # average WriteReq miss latency
system.cpu0.dcache.WriteReq_avg_miss_latency::total 24655.677035                       # average WriteReq miss latency
system.cpu0.dcache.LoadLockedReq_avg_miss_latency::cpu0.data 16188.944724                       # average LoadLockedReq miss latency
system.cpu0.dcache.LoadLockedReq_avg_miss_latency::total 16188.944724                       # average LoadLockedReq miss latency
system.cpu0.dcache.StoreCondReq_avg_miss_latency::cpu0.data 15247.318236                       # average StoreCondReq miss latency
system.cpu0.dcache.StoreCondReq_avg_miss_latency::total 15247.318236                       # average StoreCondReq miss latency
system.cpu0.dcache.StoreCondFailReq_avg_miss_latency::cpu0.data          inf                       # average StoreCondFailReq miss latency
system.cpu0.dcache.StoreCondFailReq_avg_miss_latency::total          inf                       # average StoreCondFailReq miss latency
system.cpu0.dcache.demand_avg_miss_latency::cpu0.data 24573.978786                       # average overall miss latency
system.cpu0.dcache.demand_avg_miss_latency::total 24573.978786                       # average overall miss latency
system.cpu0.dcache.overall_avg_miss_latency::cpu0.data 24573.978786                       # average overall miss latency
system.cpu0.dcache.overall_avg_miss_latency::total 24573.978786                       # average overall miss latency
system.cpu0.dcache.blocked_cycles::no_mshrs         8366                       # number of cycles access was blocked
system.cpu0.dcache.blocked_cycles::no_targets            0                       # number of cycles access was blocked
system.cpu0.dcache.blocked::no_mshrs             1495                       # number of cycles access was blocked
system.cpu0.dcache.blocked::no_targets              0                       # number of cycles access was blocked
system.cpu0.dcache.avg_blocked_cycles::no_mshrs     5.595987                       # average number of cycles each access was blocked
system.cpu0.dcache.avg_blocked_cycles::no_targets          nan                       # average number of cycles each access was blocked
system.cpu0.dcache.writebacks::writebacks         1402                       # number of writebacks
system.cpu0.dcache.writebacks::total             1402                       # number of writebacks
system.cpu0.dcache.ReadReq_mshr_hits::cpu0.data         3097                       # number of ReadReq MSHR hits
system.cpu0.dcache.ReadReq_mshr_hits::total         3097                       # number of ReadReq MSHR hits
system.cpu0.dcache.WriteReq_mshr_hits::cpu0.data         5563                       # number of WriteReq MSHR hits
system.cpu0.dcache.WriteReq_mshr_hits::total         5563                       # number of WriteReq MSHR hits
system.cpu0.dcache.LoadLockedReq_mshr_hits::cpu0.data          678                       # number of LoadLockedReq MSHR hits
system.cpu0.dcache.LoadLockedReq_mshr_hits::total          678                       # number of LoadLockedReq MSHR hits
system.cpu0.dcache.demand_mshr_hits::cpu0.data         8660                       # number of demand (read+write) MSHR hits
system.cpu0.dcache.demand_mshr_hits::total         8660                       # number of demand (read+write) MSHR hits
system.cpu0.dcache.overall_mshr_hits::cpu0.data         8660                       # number of overall MSHR hits
system.cpu0.dcache.overall_mshr_hits::total         8660                       # number of overall MSHR hits
system.cpu0.dcache.ReadReq_mshr_misses::cpu0.data         4467                       # number of ReadReq MSHR misses
system.cpu0.dcache.ReadReq_mshr_misses::total         4467                       # number of ReadReq MSHR misses
system.cpu0.dcache.WriteReq_mshr_misses::cpu0.data         6011                       # number of WriteReq MSHR misses
system.cpu0.dcache.WriteReq_mshr_misses::total         6011                       # number of WriteReq MSHR misses
system.cpu0.dcache.LoadLockedReq_mshr_misses::cpu0.data          317                       # number of LoadLockedReq MSHR misses
system.cpu0.dcache.LoadLockedReq_mshr_misses::total          317                       # number of LoadLockedReq MSHR misses
system.cpu0.dcache.StoreCondReq_mshr_misses::cpu0.data         1678                       # number of StoreCondReq MSHR misses
system.cpu0.dcache.StoreCondReq_mshr_misses::total         1678                       # number of StoreCondReq MSHR misses
system.cpu0.dcache.demand_mshr_misses::cpu0.data        10478                       # number of demand (read+write) MSHR misses
system.cpu0.dcache.demand_mshr_misses::total        10478                       # number of demand (read+write) MSHR misses
system.cpu0.dcache.overall_mshr_misses::cpu0.data        10478                       # number of overall MSHR misses
system.cpu0.dcache.overall_mshr_misses::total        10478                       # number of overall MSHR misses
system.cpu0.dcache.ReadReq_mshr_miss_latency::cpu0.data     97600003                       # number of ReadReq MSHR miss cycles
system.cpu0.dcache.ReadReq_mshr_miss_latency::total     97600003                       # number of ReadReq MSHR miss cycles
system.cpu0.dcache.WriteReq_mshr_miss_latency::cpu0.data    139849290                       # number of WriteReq MSHR miss cycles
system.cpu0.dcache.WriteReq_mshr_miss_latency::total    139849290                       # number of WriteReq MSHR miss cycles
system.cpu0.dcache.LoadLockedReq_mshr_miss_latency::cpu0.data      5893000                       # number of LoadLockedReq MSHR miss cycles
system.cpu0.dcache.LoadLockedReq_mshr_miss_latency::total      5893000                       # number of LoadLockedReq MSHR miss cycles
system.cpu0.dcache.StoreCondReq_mshr_miss_latency::cpu0.data     22336979                       # number of StoreCondReq MSHR miss cycles
system.cpu0.dcache.StoreCondReq_mshr_miss_latency::total     22336979                       # number of StoreCondReq MSHR miss cycles
system.cpu0.dcache.StoreCondFailReq_mshr_miss_latency::cpu0.data      1628000                       # number of StoreCondFailReq MSHR miss cycles
system.cpu0.dcache.StoreCondFailReq_mshr_miss_latency::total      1628000                       # number of StoreCondFailReq MSHR miss cycles
system.cpu0.dcache.demand_mshr_miss_latency::cpu0.data    237449293                       # number of demand (read+write) MSHR miss cycles
system.cpu0.dcache.demand_mshr_miss_latency::total    237449293                       # number of demand (read+write) MSHR miss cycles
system.cpu0.dcache.overall_mshr_miss_latency::cpu0.data    237449293                       # number of overall MSHR miss cycles
[...]
system.cpu7.icache.ReadReq_avg_miss_latency::cpu7.inst 41241.550956                       # average ReadReq miss latency
system.cpu7.icache.ReadReq_avg_miss_latency::total 41241.550956                       # average ReadReq miss latency
system.cpu7.icache.demand_avg_miss_latency::cpu7.inst 41241.550956                       # average overall miss latency
system.cpu7.icache.demand_avg_miss_latency::total 41241.550956                       # average overall miss latency
system.cpu7.icache.overall_avg_miss_latency::cpu7.inst 41241.550956                       # average overall miss latency
system.cpu7.icache.overall_avg_miss_latency::total 41241.550956                       # average overall miss latency
system.cpu7.icache.blocked_cycles::no_mshrs            0                       # number of cycles access was blocked
system.cpu7.icache.blocked_cycles::no_targets            0                       # number of cycles access was blocked
system.cpu7.icache.blocked::no_mshrs                0                       # number of cycles access was blocked
system.cpu7.icache.blocked::no_targets              0                       # number of cycles access was blocked
system.cpu7.icache.avg_blocked_cycles::no_mshrs          nan                       # average number of cycles each access was blocked
system.cpu7.icache.avg_blocked_cycles::no_targets          nan                       # average number of cycles each access was blocked
system.cpu7.icache.writebacks::writebacks         2567                       # number of writebacks
system.cpu7.icache.writebacks::total             2567                       # number of writebacks
system.cpu7.icache.ReadReq_mshr_hits::cpu7.inst          733                       # number of ReadReq MSHR hits
system.cpu7.icache.ReadReq_mshr_hits::total          733                       # number of ReadReq MSHR hits
system.cpu7.icache.demand_mshr_hits::cpu7.inst          733                       # number of demand (read+write) MSHR hits
system.cpu7.icache.demand_mshr_hits::total          733                       # number of demand (read+write) MSHR hits
system.cpu7.icache.overall_mshr_hits::cpu7.inst          733                       # number of overall MSHR hits
system.cpu7.icache.overall_mshr_hits::total          733                       # number of overall MSHR hits
system.cpu7.icache.ReadReq_mshr_misses::cpu7.inst         3084                       # number of ReadReq MSHR misses
system.cpu7.icache.ReadReq_mshr_misses::total         3084                       # number of ReadReq MSHR misses
system.cpu7.icache.demand_mshr_misses::cpu7.inst         3084                       # number of demand (read+write) MSHR misses
system.cpu7.icache.demand_mshr_misses::total         3084                       # number of demand (read+write) MSHR misses
system.cpu7.icache.overall_mshr_misses::cpu7.inst         3084                       # number of overall MSHR misses
system.cpu7.icache.overall_mshr_misses::total         3084                       # number of overall MSHR misses
system.cpu7.icache.ReadReq_mshr_miss_latency::cpu7.inst    134972000                       # number of ReadReq MSHR miss cycles
system.cpu7.icache.ReadReq_mshr_miss_latency::total    134972000                       # number of ReadReq MSHR miss cycles
system.cpu7.icache.demand_mshr_miss_latency::cpu7.inst    134972000                       # number of demand (read+write) MSHR miss cycles
system.cpu7.icache.demand_mshr_miss_latency::total    134972000                       # number of demand (read+write) MSHR miss cycles
system.cpu7.icache.overall_mshr_miss_latency::cpu7.inst    134972000                       # number of overall MSHR miss cycles
system.cpu7.icache.overall_mshr_miss_latency::total    134972000                       # number of overall MSHR miss cycles
system.cpu7.icache.ReadReq_mshr_miss_rate::cpu7.inst     0.000321                       # mshr miss rate for ReadReq accesses
system.cpu7.icache.ReadReq_mshr_miss_rate::total     0.000321                       # mshr miss rate for ReadReq accesses
system.cpu7.icache.demand_mshr_miss_rate::cpu7.inst     0.000321                       # mshr miss rate for demand accesses
system.cpu7.icache.demand_mshr_miss_rate::total     0.000321                       # mshr miss rate for demand accesses
system.cpu7.icache.overall_mshr_miss_rate::cpu7.inst     0.000321                       # mshr miss rate for overall accesses
system.cpu7.icache.overall_mshr_miss_rate::total     0.000321                       # mshr miss rate for overall accesses
system.cpu7.icache.ReadReq_avg_mshr_miss_latency::cpu7.inst 43765.239948                       # average ReadReq mshr miss latency
system.cpu7.icache.ReadReq_avg_mshr_miss_latency::total 43765.239948                       # average ReadReq mshr miss latency
system.cpu7.icache.demand_avg_mshr_miss_latency::cpu7.inst 43765.239948                       # average overall mshr miss latency
system.cpu7.icache.demand_avg_mshr_miss_latency::total 43765.239948                       # average overall mshr miss latency
system.cpu7.icache.overall_avg_mshr_miss_latency::cpu7.inst 43765.239948                       # average overall mshr miss latency
system.cpu7.icache.overall_avg_mshr_miss_latency::total 43765.239948                       # average overall mshr miss latency
system.cpu_voltage_domain.voltage                   1                       # Voltage in Volts
system.cpu_clk_domain.clock                       500                       # Clock period in ticks
system.membus.snoop_filter.tot_requests        137614                       # Total number of requests made to the snoop filter.
system.membus.snoop_filter.hit_single_requests        41803                       # Number of requests hitting in the snoop filter with a single holder of the requested data.
system.membus.snoop_filter.hit_multi_requests        83498                       # Number of requests hitting in the snoop filter with multiple (>1) holders of the requested data.
system.membus.snoop_filter.tot_snoops               0                       # Total number of snoops made to the snoop filter.
system.membus.snoop_filter.hit_single_snoops            0                       # Number of snoops hitting in the snoop filter with a single holder of the requested data.
system.membus.snoop_filter.hit_multi_snoops            0                       # Number of snoops hitting in the snoop filter with multiple (>1) holders of the requested data.
system.membus.pwrStateResidencyTicks::UNDEFINED  84861904000                       # Cumulative time (in ticks) in various power states
system.membus.trans_dist::ReadResp              62178                       # Transaction distribution
system.membus.trans_dist::ReadRespWithInvalidate           51                       # Transaction distribution
system.membus.trans_dist::WritebackDirty         3390                       # Transaction distribution
system.membus.trans_dist::WritebackClean        26831                       # Transaction distribution
system.membus.trans_dist::CleanEvict             2876                       # Transaction distribution
system.membus.trans_dist::UpgradeReq             8564                       # Transaction distribution
system.membus.trans_dist::SCUpgradeReq          10262                       # Transaction distribution
system.membus.trans_dist::UpgradeResp           15549                       # Transaction distribution
system.membus.trans_dist::SCUpgradeFailReq          538                       # Transaction distribution
system.membus.trans_dist::UpgradeFailResp          538                       # Transaction distribution
system.membus.trans_dist::ReadExReq             19023                       # Transaction distribution
system.membus.trans_dist::ReadExResp            19023                       # Transaction distribution
system.membus.trans_dist::ReadCleanReq          30954                       # Transaction distribution
system.membus.trans_dist::ReadSharedReq         31275                       # Transaction distribution
system.membus.pkt_count_system.cpu0.icache.mem_side::system.physmem.port        14264                       # Packet count per connected master and slave (bytes)
system.membus.pkt_count_system.cpu0.dcache.mem_side::system.physmem.port        17359                       # Packet count per connected master and slave (bytes)
system.membus.pkt_count_system.cpu1.icache.mem_side::system.physmem.port        10914                       # Packet count per connected master and slave (bytes)
system.membus.pkt_count_system.cpu1.dcache.mem_side::system.physmem.port        13288                       # Packet count per connected master and slave (bytes)
system.membus.pkt_count_system.cpu2.icache.mem_side::system.physmem.port        11564                       # Packet count per connected master and slave (bytes)
system.membus.pkt_count_system.cpu2.dcache.mem_side::system.physmem.port        11308                       # Packet count per connected master and slave (bytes)
system.membus.pkt_count_system.cpu3.icache.mem_side::system.physmem.port        11437                       # Packet count per connected master and slave (bytes)
system.membus.pkt_count_system.cpu3.dcache.mem_side::system.physmem.port        11954                       # Packet count per connected master and slave (bytes)
system.membus.pkt_count_system.cpu4.icache.mem_side::system.physmem.port        10920                       # Packet count per connected master and slave (bytes)
system.membus.pkt_count_system.cpu4.dcache.mem_side::system.physmem.port        10373                       # Packet count per connected master and slave (bytes)
system.membus.pkt_count_system.cpu5.icache.mem_side::system.physmem.port        10291                       # Packet count per connected master and slave (bytes)
system.membus.pkt_count_system.cpu5.dcache.mem_side::system.physmem.port         5621                       # Packet count per connected master and slave (bytes)
system.membus.pkt_count_system.cpu6.icache.mem_side::system.physmem.port        10586                       # Packet count per connected master and slave (bytes)
system.membus.pkt_count_system.cpu6.dcache.mem_side::system.physmem.port         5894                       # Packet count per connected master and slave (bytes)
system.membus.pkt_count_system.cpu7.icache.mem_side::system.physmem.port         8727                       # Packet count per connected master and slave (bytes)
system.membus.pkt_count_system.cpu7.dcache.mem_side::system.physmem.port         9887                       # Packet count per connected master and slave (bytes)
system.membus.pkt_count::total                 174387                       # Packet count per connected master and slave (bytes)
system.membus.pkt_size_system.cpu0.icache.mem_side::system.physmem.port       597632                       # Cumulative packet size per connected master and slave (bytes)
system.membus.pkt_size_system.cpu0.dcache.mem_side::system.physmem.port       260288                       # Cumulative packet size per connected master and slave (bytes)
system.membus.pkt_size_system.cpu1.icache.mem_side::system.physmem.port       454656                       # Cumulative packet size per connected master and slave (bytes)
system.membus.pkt_size_system.cpu1.dcache.mem_side::system.physmem.port        97728                       # Cumulative packet size per connected master and slave (bytes)
system.membus.pkt_size_system.cpu2.icache.mem_side::system.physmem.port       482240                       # Cumulative packet size per connected master and slave (bytes)
system.membus.pkt_size_system.cpu2.dcache.mem_side::system.physmem.port        88768                       # Cumulative packet size per connected master and slave (bytes)
system.membus.pkt_size_system.cpu3.icache.mem_side::system.physmem.port       476608                       # Cumulative packet size per connected master and slave (bytes)
system.membus.pkt_size_system.cpu3.dcache.mem_side::system.physmem.port        92736                       # Cumulative packet size per connected master and slave (bytes)
system.membus.pkt_size_system.cpu4.icache.mem_side::system.physmem.port       454784                       # Cumulative packet size per connected master and slave (bytes)
system.membus.pkt_size_system.cpu4.dcache.mem_side::system.physmem.port        88448                       # Cumulative packet size per connected master and slave (bytes)
system.membus.pkt_size_system.cpu5.icache.mem_side::system.physmem.port       428160                       # Cumulative packet size per connected master and slave (bytes)
system.membus.pkt_size_system.cpu5.dcache.mem_side::system.physmem.port        78976                       # Cumulative packet size per connected master and slave (bytes)
system.membus.pkt_size_system.cpu6.icache.mem_side::system.physmem.port       440704                       # Cumulative packet size per connected master and slave (bytes)
system.membus.pkt_size_system.cpu6.dcache.mem_side::system.physmem.port        74240                       # Cumulative packet size per connected master and slave (bytes)
system.membus.pkt_size_system.cpu7.icache.mem_side::system.physmem.port       361152                       # Cumulative packet size per connected master and slave (bytes)
system.membus.pkt_size_system.cpu7.dcache.mem_side::system.physmem.port        60160                       # Cumulative packet size per connected master and slave (bytes)
system.membus.pkt_size::total                 4537280                       # Cumulative packet size per connected master and slave (bytes)
system.membus.snoops                            56665                       # Total snoops (count)
system.membus.snoopTraffic                    2631424                       # Total snoop traffic (bytes)
system.membus.snoop_fanout::samples            104118                       # Request fanout histogram
system.membus.snoop_fanout::mean             2.241034                       # Request fanout histogram
system.membus.snoop_fanout::stdev            2.347569                       # Request fanout histogram
system.membus.snoop_fanout::underflows              0      0.00%      0.00% # Request fanout histogram
system.membus.snoop_fanout::0                   12325     11.84%     11.84% # Request fanout histogram
system.membus.snoop_fanout::1                   51583     49.54%     61.38% # Request fanout histogram
system.membus.snoop_fanout::2                    9117      8.76%     70.14% # Request fanout histogram
system.membus.snoop_fanout::3                    6781      6.51%     76.65% # Request fanout histogram
system.membus.snoop_fanout::4                    6284      6.04%     82.69% # Request fanout histogram
system.membus.snoop_fanout::5                    6095      5.85%     88.54% # Request fanout histogram
system.membus.snoop_fanout::6                    4886      4.69%     93.23% # Request fanout histogram
system.membus.snoop_fanout::7                    4920      4.73%     97.96% # Request fanout histogram
system.membus.snoop_fanout::8                     349      0.34%     98.29% # Request fanout histogram
system.membus.snoop_fanout::9                     292      0.28%     98.57% # Request fanout histogram
system.membus.snoop_fanout::10                    271      0.26%     98.83% # Request fanout histogram
system.membus.snoop_fanout::11                    271      0.26%     99.09% # Request fanout histogram
system.membus.snoop_fanout::12                    245      0.24%     99.33% # Request fanout histogram
system.membus.snoop_fanout::13                    246      0.24%     99.56% # Request fanout histogram
system.membus.snoop_fanout::14                    239      0.23%     99.79% # Request fanout histogram
system.membus.snoop_fanout::15                    214      0.21%    100.00% # Request fanout histogram
system.membus.snoop_fanout::16                      0      0.00%    100.00% # Request fanout histogram
system.membus.snoop_fanout::overflows               0      0.00%    100.00% # Request fanout histogram
system.membus.snoop_fanout::min_value               0                       # Request fanout histogram
system.membus.snoop_fanout::max_value              15                       # Request fanout histogram
system.membus.snoop_fanout::total              104118                       # Request fanout histogram
system.membus.reqLayer0.occupancy           260612237                       # Layer occupancy (ticks)
system.membus.reqLayer0.utilization               0.3                       # Layer utilization (%)
system.membus.respLayer1.occupancy           24630999                       # Layer occupancy (ticks)
system.membus.respLayer1.utilization              0.0                       # Layer utilization (%)
system.membus.respLayer2.occupancy           48437924                       # Layer occupancy (ticks)
system.membus.respLayer2.utilization              0.1                       # Layer utilization (%)
system.membus.respLayer5.occupancy           19050000                       # Layer occupancy (ticks)
system.membus.respLayer5.utilization              0.0                       # Layer utilization (%)
system.membus.respLayer6.occupancy           42727876                       # Layer occupancy (ticks)
system.membus.respLayer6.utilization              0.1                       # Layer utilization (%)
system.membus.respLayer9.occupancy           20145000                       # Layer occupancy (ticks)
system.membus.respLayer9.utilization              0.0                       # Layer utilization (%)
system.membus.respLayer10.occupancy          36534875                       # Layer occupancy (ticks)
system.membus.respLayer10.utilization             0.0                       # Layer utilization (%)
system.membus.respLayer13.occupancy          19950000                       # Layer occupancy (ticks)
system.membus.respLayer13.utilization             0.0                       # Layer utilization (%)
system.membus.respLayer14.occupancy          38813510                       # Layer occupancy (ticks)
system.membus.respLayer14.utilization             0.0                       # Layer utilization (%)
system.membus.respLayer17.occupancy          19070999                       # Layer occupancy (ticks)
system.membus.respLayer17.utilization             0.0                       # Layer utilization (%)
system.membus.respLayer18.occupancy          33145754                       # Layer occupancy (ticks)
system.membus.respLayer18.utilization             0.0                       # Layer utilization (%)
system.membus.respLayer21.occupancy          18005000                       # Layer occupancy (ticks)
system.membus.respLayer21.utilization             0.0                       # Layer utilization (%)
system.membus.respLayer22.occupancy          17285712                       # Layer occupancy (ticks)
system.membus.respLayer22.utilization             0.0                       # Layer utilization (%)
system.membus.respLayer25.occupancy          18500000                       # Layer occupancy (ticks)
system.membus.respLayer25.utilization             0.0                       # Layer utilization (%)
system.membus.respLayer26.occupancy          18513459                       # Layer occupancy (ticks)
system.membus.respLayer26.utilization             0.0                       # Layer utilization (%)
system.membus.respLayer29.occupancy          15420999                       # Layer occupancy (ticks)
system.membus.respLayer29.utilization             0.0                       # Layer utilization (%)
system.membus.respLayer30.occupancy          35266532                       # Layer occupancy (ticks)
system.membus.respLayer30.utilization             0.0                       # Layer utilization (%)

---------- End Simulation Statistics   ----------
